**
** Heading +++++++++++++++++++++++++++++++++++++++++++++++++
**
*Heading
Hash: BZZZyUaH, Date: 08/14/2026, Unit system: MM_TON_S_C
**
** Nodes +++++++++++++++++++++++++++++++++++++++++++++++++++
**
*Node
1, -1.50000000E+001, -1.80000000E-015, 0.00000000E+000
2, 1.50000000E+001, 0.00000000E+000, 0.00000000E+000
3, 1.50000000E+001, 0.00000000E+000, 8.00000000E+001
4, -1.50000000E+001, -1.80000000E-015, 8.00000000E+001
5, -1.29825200E+001, -7.51359938E+000, 0.00000000E+000
6, -7.43188003E+000, -1.30294727E+001, 0.00000000E+000
7, -2.80000000E-015, -1.50000000E+001, 0.00000000E+000
8, 7.47277658E+000, -1.30060605E+001, 0.00000000E+000
9, 1.28870787E+001, -7.67614500E+000, 0.00000000E+000
10, 1.50000000E+001, 0.00000000E+000, 8.24000000E+000
11, 1.50000000E+001, 0.00000000E+000, 1.62400000E+001
12, 1.50000000E+001, 0.00000000E+000, 2.41600000E+001
13, 1.50000000E+001, 0.00000000E+000, 3.21600000E+001
14, 1.50000000E+001, 0.00000000E+000, 4.01600000E+001
15, 1.50000000E+001, 0.00000000E+000, 4.80800000E+001
16, 1.50000000E+001, 0.00000000E+000, 5.60800000E+001
17, 1.50000000E+001, 0.00000000E+000, 6.40800000E+001
18, 1.50000000E+001, 0.00000000E+000, 7.20800000E+001
19, -1.29350547E+001, -7.59502211E+000, 8.00000000E+001
20, -7.26756436E+000, -1.31218333E+001, 8.00000000E+001
** ... 148 like lines cut
**
** Elements ++++++++++++++++++++++++++++++++++++++++++++++++
**
*Element, Type=C3D4, Elset=Solid_part-1
1, 51, 164, 50, 160
2, 2, 10, 147, 9
3, 166, 87, 91, 84
4, 151, 153, 161, 152
5, 147, 10, 45, 9
6, 166, 70, 67, 84
7, 103, 164, 16, 17
8, 147, 10, 38, 105
9, 147, 10, 2, 38
10, 162, 69, 68, 161
11, 47, 70, 166, 60
12, 69, 162, 68, 86
13, 129, 164, 108, 165
14, 148, 161, 149, 153
15, 89, 88, 166, 84
16, 50, 21, 159, 158
17, 72, 165, 90, 78
18, 123, 138, 167, 165
19, 49, 50, 158, 20
20, 145, 137, 144, 167
** ... 383 like lines cut
**
** Node sets +++++++++++++++++++++++++++++++++++++++++++++++
**
*Nset, Nset=bottom
3, 4, 19, 20, 21, 22, 23, 33, 34, 35, 36, 37, 154, 155, 156, 157, 
158, 159, 160
*Nset, Nset=top
1, 2, 5, 6, 7, 8, 9, 38, 39, 40, 41, 42, 147, 148, 149, 150, 
151, 152, 153
*Nset, Nset=Internal-1_Surface1
1, 2, 3, 4, 10, 11, 12, 13, 14, 15, 16, 17, 18, 24, 25, 26, 
27, 28, 29, 30, 31, 32, 33, 34, 35, 36, 37, 38, 39, 40, 41, 42, 
92, 93, 94, 95, 96, 97, 98, 99, 100, 101, 102, 103, 104, 105, 106, 107, 
108, 109, 110, 111, 112, 113, 114, 115, 116, 117, 118, 119, 120, 121, 122, 123, 
124, 125, 126, 127, 128, 129, 130, 131, 132, 133, 134, 135, 136, 137, 138, 139, 
140, 141, 142, 143, 144, 145, 146
**
** Element sets ++++++++++++++++++++++++++++++++++++++++++++
**
*Elset, Elset=Element_Set-1
1, 2, 3, 4, 5, 6, 7, 8, 9, 10, 11, 12, 13, 14, 15, 16, 
17, 18, 19, 20, 21, 22, 23, 24, 25, 26, 27, 28, 29, 30, 31, 32, 
33, 34, 35, 36, 37, 38, 39, 40, 41, 42, 43, 44, 45, 46, 47, 48, 
49, 50, 51, 52, 53, 54, 55, 56, 57, 58, 59, 60, 61, 62, 63, 64, 
65, 66, 67, 68, 69, 70, 71, 72, 73, 74, 75, 76, 77, 78, 79, 80, 
81, 82, 83, 84, 85, 86, 87, 88, 89, 90, 91, 92, 93, 94, 95, 96, 
97, 98, 99, 100, 101, 102, 103, 104, 105, 106, 107, 108, 109, 110, 111, 112, 
113, 114, 115, 116, 117, 118, 119, 120, 121, 122, 123, 124, 125, 126, 127, 128, 
129, 130, 131, 132, 133, 134, 135, 136, 137, 138, 139, 140, 141, 142, 143, 144, 
145, 146, 147, 148, 149, 150, 151, 152, 153, 154, 155, 156, 157, 158, 159, 160, 
161, 162, 163, 164, 165, 166, 167, 168, 169, 170, 171, 172, 173, 174, 175, 176, 
177, 178, 179, 180, 181, 182, 183, 184, 185, 186, 187, 188, 189, 190, 191, 192, 
193, 194, 195, 196, 197, 198, 199, 200, 201, 202, 203, 204, 205, 206, 207, 208, 
209, 210, 211, 212, 213, 214, 215, 216, 217, 218, 219, 220, 221, 222, 223, 224, 
225, 226, 227, 228, 229, 230, 231, 232, 233, 234, 235, 236, 237, 238, 239, 240, 
241, 242, 243, 244, 245, 246, 247, 248, 249, 250, 251, 252, 253, 254, 255, 256, 
257, 258, 259, 260, 261, 262, 263, 264, 265, 266, 267, 268, 269, 270, 271, 272, 
273, 274, 275, 276, 277, 278, 279, 280, 281, 282, 283, 284, 285, 286, 287, 288, 
289, 290, 291, 292, 293, 294, 295, 296, 297, 298, 299, 300, 301, 302, 303, 304, 
305, 306, 307, 308, 309, 310, 311, 312, 313, 314, 315, 316, 317, 318, 319, 320, 
** ... 6 like lines cut
*Elset, Elset=Internal-1_Surface1_S4
7, 66, 71, 74, 78, 95, 106, 122, 155, 158, 163, 175, 197, 210, 226, 236, 
245, 253, 260, 268, 279, 284, 327, 337, 351, 354, 357, 362, 389, 392
*Elset, Elset=Internal-1_Surface1_S3
8, 9, 31, 37, 55, 87, 92, 94, 107, 141, 169, 186, 190, 195, 198, 219, 
222, 247, 248, 251, 257, 270, 282, 286, 298, 303, 307, 308, 319, 328, 329, 332, 
340, 342, 343, 353, 369, 374, 378, 397, 401
*Elset, Elset=Internal-1_Surface1_S1
20, 36, 38, 43, 50, 56, 64, 99, 104, 108, 109, 126, 129, 130, 147, 151, 
152, 161, 170, 177, 180, 202, 255, 269, 278, 287, 289, 292, 318, 352, 385, 391, 
396, 403
*Elset, Elset=Internal-1_Surface1_S2
25, 27, 28, 30, 40, 48, 61, 63, 101, 110, 131, 136, 150, 159, 168, 179, 
196, 205, 211, 221, 246, 254, 261, 262, 274, 296, 322, 333, 346, 348, 368, 370, 
371, 377, 383
**
** Surfaces ++++++++++++++++++++++++++++++++++++++++++++++++
**
*Surface, Name=Surface1, Type=Element
Internal-1_Surface1_S4, S4
Internal-1_Surface1_S3, S3
Internal-1_Surface1_S1, S1
Internal-1_Surface1_S2, S2
**
** Physical constants ++++++++++++++++++++++++++++++++++++++
**
**
** Coordinate systems ++++++++++++++++++++++++++++++++++++++
**
**
** Materials +++++++++++++++++++++++++++++++++++++++++++++++
**
*Material, Name=S355
*Density
7.8E-09
*Elastic
210000, 0.28
**
** Sections ++++++++++++++++++++++++++++++++++++++++++++++++
**
*Solid section, Elset=Element_Set-1, Material=S355
**
** Pre-tension sections ++++++++++++++++++++++++++++++++++++
**
**
** Constraints +++++++++++++++++++++++++++++++++++++++++++++
**
**
** Surface interactions ++++++++++++++++++++++++++++++++++++
**
**
** Contact pairs +++++++++++++++++++++++++++++++++++++++++++
**
**
** Amplitudes ++++++++++++++++++++++++++++++++++++++++++++++
**
**
** Initial conditions ++++++++++++++++++++++++++++++++++++++
**
**
** Steps +++++++++++++++++++++++++++++++++++++++++++++++++++
**
*SUPPORT, SUPPORT_COLLECTOR=BC
top, 0.0, 0.0, 0.0
bottom, 0.0, 0.0, 0.0

*PRETENSIONSECTION, NAME=PT1, SURFACE=SURFACE1, POSITION=MIDDLE, SNAP=0.1
0.0, 0.0, 1.0
*PRETENSION, SECTION=PT1, ACTION=LOAD, CONTROL=DISPLACEMENT, VALUE=1.0

*LOADCASE, TYPE=LINEARSTATIC, NAME=PRETENSION_TEST
*SUPPORTS
BC
*SOLVER, DEVICE=CPU, METHOD=DIRECT
*CONSTRAINTMETHOD, TYPE=LAGRANGE
*CONSTRAINTSUMMARY
*END
