**
** Heading +++++++++++++++++++++++++++++++++++++++++++++++++
**
*Heading
Hash: z4TaxxJH, Date: 08/17/2026, Unit system: MM_TON_S_C
**
** Nodes +++++++++++++++++++++++++++++++++++++++++++++++++++
**
*Node
1, -1.50000000E+001, -1.83697020E-015, 8.00000000E+001
2, 1.50000000E+001, 0.00000000E+000, 8.00000000E+001
3, 1.50000000E+001, 0.00000000E+000, 9.00000000E+001
4, -1.50000000E+001, -1.83697020E-015, 9.00000000E+001
5, -1.68481782E-015, -8.00000000E+000, 8.00000000E+001
6, 2.66453526E-015, 8.00000000E+000, 8.00000000E+001
7, -8.00000000E+000, -9.79717439E-016, 0.00000000E+000
8, 8.00000000E+000, 0.00000000E+000, 0.00000000E+000
9, 8.00000000E+000, 0.00000000E+000, 4.00000000E+001
10, -8.00000000E+000, -9.79717439E-016, 4.00000000E+001
11, -1.68481782E-015, -8.00000000E+000, 4.00000000E+001
12, 2.66453526E-015, 8.00000000E+000, 4.00000000E+001
13, -1.42658477E+001, -4.63525492E+000, 8.00000000E+001
14, -1.21352549E+001, -8.81677878E+000, 8.00000000E+001
15, -8.81677878E+000, -1.21352549E+001, 8.00000000E+001
16, -4.63525492E+000, -1.42658477E+001, 8.00000000E+001
17, 5.05353409E-014, -1.50000000E+001, 8.00000000E+001
18, 4.63525492E+000, -1.42658477E+001, 8.00000000E+001
19, 8.81677878E+000, -1.21352549E+001, 8.00000000E+001
20, 1.21352549E+001, -8.81677878E+000, 8.00000000E+001
** ... 3423 like lines cut
**
** Elements ++++++++++++++++++++++++++++++++++++++++++++++++
**
*Element, Type=C3D10, Elset=Solid_part-4
1, 465, 1881, 5, 1884, 1900, 1901, 476, 1902, 1904, 1903
2, 462, 466, 467, 1882, 509, 512, 511, 1905, 1907, 1906
3, 5, 1881, 465, 1883, 1901, 1900, 476, 1908, 1910, 1909
4, 552, 1891, 1887, 1899, 1911, 1912, 1913, 1914, 1916, 1915
5, 462, 1881, 466, 1882, 1917, 1918, 509, 1905, 1919, 1907
6, 473, 1885, 1881, 1893, 1920, 1921, 1922, 1923, 1925, 1924
7, 462, 465, 1881, 1883, 478, 1900, 1917, 1926, 1909, 1910
8, 462, 5, 465, 1883, 475, 476, 478, 1926, 1908, 1909
9, 1887, 1891, 6, 1899, 1912, 1927, 1928, 1915, 1916, 1929
10, 357, 1887, 6, 1899, 1930, 1928, 385, 1931, 1915, 1929
11, 462, 1882, 467, 1883, 1905, 1906, 511, 1926, 1933, 1932
12, 473, 1881, 106, 1893, 1922, 1934, 493, 1923, 1924, 1935
13, 465, 5, 106, 1884, 476, 111, 477, 1902, 1903, 1936
14, 465, 106, 1881, 1884, 477, 1934, 1900, 1902, 1936, 1904
15, 462, 1881, 1882, 1883, 1917, 1919, 1905, 1926, 1910, 1933
16, 464, 1881, 473, 1885, 1937, 1922, 498, 1938, 1921, 1920
17, 525, 1891, 552, 1899, 1939, 1911, 603, 1940, 1916, 1914
18, 293, 349, 367, 1892, 1941, 418, 1942, 1943, 1945, 1944
19, 473, 107, 1885, 1893, 494, 1946, 1920, 1923, 1947, 1925
20, 538, 1884, 1881, 1893, 1948, 1904, 1949, 1950, 1951, 1924
** ... 453 like lines cut
*Element, Type=C3D10, Elset=Solid_part-5
474, 2262, 2272, 705, 2277, 2292, 2293, 2294, 2295, 2297, 2296
475, 705, 2272, 2262, 2274, 2293, 2292, 2294, 2298, 2300, 2299
476, 704, 684, 727, 2275, 875, 796, 863, 2301, 2303, 2302
477, 687, 2262, 705, 2277, 2304, 2294, 848, 2305, 2295, 2296
478, 2262, 2274, 2272, 2277, 2299, 2300, 2292, 2295, 2306, 2297
479, 982, 983, 963, 2271, 1149, 1148, 1150, 2307, 2309, 2308
480, 702, 704, 681, 2270, 859, 858, 860, 2310, 2312, 2311
481, 2262, 2258, 2274, 2277, 2313, 2314, 2299, 2295, 2315, 2306
482, 989, 2267, 2266, 2285, 2316, 2317, 2318, 2319, 2321, 2320
483, 2272, 2274, 2258, 2277, 2300, 2314, 2322, 2297, 2306, 2315
484, 725, 732, 685, 2259, 800, 792, 879, 2323, 2325, 2324
485, 720, 704, 2270, 2275, 874, 2312, 2326, 2327, 2301, 2328
486, 2260, 2276, 675, 2289, 2329, 2330, 2331, 2332, 2334, 2333
487, 983, 963, 2271, 2275, 1148, 2308, 2309, 2335, 2337, 2336
488, 2266, 2267, 2256, 2285, 2317, 2338, 2339, 2320, 2321, 2340
489, 989, 987, 2267, 2285, 1231, 2341, 2316, 2319, 2342, 2321
490, 983, 2259, 963, 2275, 2343, 2344, 1148, 2335, 2345, 2337
491, 720, 2270, 2268, 2275, 2326, 2346, 2347, 2327, 2328, 2348
492, 2260, 2281, 2256, 2289, 2349, 2350, 2351, 2332, 2353, 2352
493, 704, 727, 1299, 2275, 863, 2354, 2355, 2301, 2302, 2356
** ... 684 like lines cut
*Element, Type=C3D10, Elset=Solid_part-6
1178, 1382, 2854, 1348, 2867, 2886, 2887, 1588, 2888, 2890, 2889
1179, 1382, 2854, 2867, 2881, 2886, 2890, 2888, 2891, 2893, 2892
1180, 1642, 2862, 2857, 2874, 2894, 2895, 2896, 2897, 2899, 2898
1181, 2854, 2864, 1348, 2867, 2900, 2901, 2887, 2890, 2902, 2889
1182, 1382, 2867, 1355, 2881, 2888, 2903, 1589, 2891, 2892, 2904
1183, 1355, 2867, 2879, 2881, 2903, 2905, 2906, 2904, 2892, 2907
1184, 1355, 2879, 2858, 2881, 2906, 2908, 2909, 2904, 2907, 2910
1185, 2858, 2860, 202, 2881, 2911, 2912, 2913, 2910, 2915, 2914
1186, 1642, 2868, 2862, 2874, 2916, 2917, 2894, 2897, 2918, 2899
1187, 1382, 1348, 1355, 2867, 1588, 1561, 1589, 2888, 2889, 2903
1188, 1348, 1341, 1355, 2867, 1560, 1552, 1561, 2889, 2919, 2903
1189, 1384, 1355, 2858, 2881, 1593, 2909, 2920, 2921, 2904, 2910
1190, 2862, 2868, 2851, 2874, 2917, 2922, 2923, 2899, 2918, 2924
1191, 1352, 1375, 2853, 2871, 1516, 2925, 2926, 2927, 2929, 2928
1192, 462, 2866, 467, 2876, 2930, 2931, 511, 2932, 2934, 2933
1193, 1609, 202, 2858, 2860, 1719, 2913, 2935, 2936, 2912, 2911
1194, 2857, 2862, 2851, 2874, 2895, 2923, 2937, 2898, 2899, 2924
1195, 2852, 2879, 2867, 2881, 2938, 2905, 2939, 2940, 2907, 2892
1196, 467, 462, 2856, 2866, 511, 2941, 2942, 2931, 2930, 2943
1197, 467, 2866, 2856, 2876, 2931, 2943, 2942, 2933, 2934, 2944
** ... 683 like lines cut
**
** Node sets +++++++++++++++++++++++++++++++++++++++++++++++
**
*Nset, Nset=Internal-1_Surface-1
9, 10, 11, 12, 147, 148, 149, 150, 151, 152, 153, 154, 155, 156, 176, 177, 
178, 179, 180, 181, 182, 183, 184, 185, 1298, 1299, 1300, 1301, 1302, 1303, 1304, 1305, 
1306, 1307, 1308, 1309, 1310, 1311, 1312, 1313, 1314, 1315, 1316, 1317, 1318, 1319, 1320, 1321, 
1322
*Nset, Nset=Internal-1_Surface-2
9, 10, 11, 12, 147, 148, 149, 150, 151, 152, 153, 154, 155, 156, 176, 177, 
178, 179, 180, 181, 182, 183, 184, 185, 1298, 1299, 1300, 1301, 1302, 1303, 1304, 1305, 
1306, 1307, 1308, 1309, 1310, 1311, 1312, 1313, 1314, 1315, 1316, 1317, 1318, 1319, 1320, 1321, 
1322
*Nset, Nset=bottom
7, 8, 117, 118, 119, 120, 121, 122, 123, 124, 125, 126, 127, 186, 187, 188, 
189, 190, 191, 192, 193, 194, 195, 196, 1237, 1238, 1239, 1240, 1241, 1242, 1243, 1244, 
1245, 1246, 1247, 1248, 1249, 1250, 1251, 1252, 1253, 1254, 1255, 1256, 1257, 1258, 1259, 1260, 
1261, 1262, 1263, 1264, 1265, 1266, 1267, 1268, 1269, 1270, 1271, 1272, 1273, 1274, 1275, 1276, 
1277, 1278, 1279, 1280, 1281, 1282, 1283, 1284, 1285, 1286, 1287, 1288, 1289, 1290, 1291, 1292, 
1293, 1294, 1295, 1296, 1297
*Nset, Nset=top
1, 2, 5, 6, 13, 14, 15, 16, 17, 18, 19, 20, 21, 22, 23, 24, 
25, 26, 27, 28, 29, 30, 31, 76, 77, 78, 79, 80, 81, 82, 83, 84, 
85, 86, 87, 88, 89, 90, 91, 92, 93, 94, 95, 96, 97, 98, 99, 100, 
101, 102, 103, 104, 105, 106, 107, 108, 109, 110, 111, 112, 113, 114, 115, 116, 
349, 350, 351, 352, 353, 354, 355, 356, 357, 358, 359, 360, 361, 362, 363, 364, 
365, 366, 367, 368, 369, 370, 371, 372, 373, 374, 375, 376, 377, 378, 379, 380, 
381, 382, 383, 384, 385, 386, 387, 388, 389, 390, 391, 392, 393, 394, 395, 396, 
397, 398, 399, 400, 401, 402, 403, 404, 405, 406, 407, 408, 409, 410, 411, 412, 
413, 414, 415, 416, 417, 418, 419, 420, 421, 422, 423, 424, 425, 426, 427, 428, 
429, 430, 431, 432, 433, 434, 435, 436, 437, 438, 439, 440, 441, 442, 443, 444, 
445, 446, 447, 448, 449, 450, 451, 452, 453, 454, 455, 456, 457, 458, 459, 460
**
** Element sets ++++++++++++++++++++++++++++++++++++++++++++
**
*Elset, Elset=all
1, 2, 3, 4, 5, 6, 7, 8, 9, 10, 11, 12, 13, 14, 15, 16, 
17, 18, 19, 20, 21, 22, 23, 24, 25, 26, 27, 28, 29, 30, 31, 32, 
33, 34, 35, 36, 37, 38, 39, 40, 41, 42, 43, 44, 45, 46, 47, 48, 
49, 50, 51, 52, 53, 54, 55, 56, 57, 58, 59, 60, 61, 62, 63, 64, 
65, 66, 67, 68, 69, 70, 71, 72, 73, 74, 75, 76, 77, 78, 79, 80, 
81, 82, 83, 84, 85, 86, 87, 88, 89, 90, 91, 92, 93, 94, 95, 96, 
97, 98, 99, 100, 101, 102, 103, 104, 105, 106, 107, 108, 109, 110, 111, 112, 
113, 114, 115, 116, 117, 118, 119, 120, 121, 122, 123, 124, 125, 126, 127, 128, 
129, 130, 131, 132, 133, 134, 135, 136, 137, 138, 139, 140, 141, 142, 143, 144, 
145, 146, 147, 148, 149, 150, 151, 152, 153, 154, 155, 156, 157, 158, 159, 160, 
161, 162, 163, 164, 165, 166, 167, 168, 169, 170, 171, 172, 173, 174, 175, 176, 
177, 178, 179, 180, 181, 182, 183, 184, 185, 186, 187, 188, 189, 190, 191, 192, 
193, 194, 195, 196, 197, 198, 199, 200, 201, 202, 203, 204, 205, 206, 207, 208, 
209, 210, 211, 212, 213, 214, 215, 216, 217, 218, 219, 220, 221, 222, 223, 224, 
225, 226, 227, 228, 229, 230, 231, 232, 233, 234, 235, 236, 237, 238, 239, 240, 
241, 242, 243, 244, 245, 246, 247, 248, 249, 250, 251, 252, 253, 254, 255, 256, 
257, 258, 259, 260, 261, 262, 263, 264, 265, 266, 267, 268, 269, 270, 271, 272, 
273, 274, 275, 276, 277, 278, 279, 280, 281, 282, 283, 284, 285, 286, 287, 288, 
289, 290, 291, 292, 293, 294, 295, 296, 297, 298, 299, 300, 301, 302, 303, 304, 
305, 306, 307, 308, 309, 310, 311, 312, 313, 314, 315, 316, 317, 318, 319, 320, 
** ... 98 like lines cut
*Elset, Elset=Internal-1_Surface-1_S1
1759, 1760, 1846, 1856, 1869, 1871
*Elset, Elset=Internal-1_Surface-1_S2
1800, 1802, 1851, 1857, 1859, 1873, 1875, 1880
*Elset, Elset=Internal-1_Surface-1_S3
1841, 1847, 1853
*Elset, Elset=Internal-1_Surface-1_S4
1870
*Elset, Elset=Internal-1_Surface-2_S1
1042, 1043, 1148, 1155, 1160, 1170, 1177
*Elset, Elset=Internal-1_Surface-2_S2
1059, 1173
*Elset, Elset=Internal-1_Surface-2_S3
1061, 1154, 1161, 1163, 1167, 1168, 1176
*Elset, Elset=Internal-1_Surface-2_S4
1144, 1149
**
** Surfaces ++++++++++++++++++++++++++++++++++++++++++++++++
**
*Surface, Name=Surface-1, Type=Element
Internal-1_Surface-1_S1, S1
Internal-1_Surface-1_S2, S2
Internal-1_Surface-1_S3, S3
Internal-1_Surface-1_S4, S4
*Surface, Name=Surface-2, Type=Element
Internal-1_Surface-2_S1, S1
Internal-1_Surface-2_S2, S2
Internal-1_Surface-2_S3, S3
Internal-1_Surface-2_S4, S4
**
** Physical constants ++++++++++++++++++++++++++++++++++++++
**
**
** Coordinate systems ++++++++++++++++++++++++++++++++++++++
**
**
** Materials +++++++++++++++++++++++++++++++++++++++++++++++
**
*Material, Name=S355
*Density
7.8E-09
*Elastic
210000, 0.28
**
** Sections ++++++++++++++++++++++++++++++++++++++++++++++++
**
*Solid section, Elset=all, Material=S355
**
** Pre-tension sections ++++++++++++++++++++++++++++++++++++
**
*PRETENSIONSECTION, NAME=PT1, SURFACE_A=Surface-1, SURFACE_B=Surface-2
*PRETENSION, SECTION=PT1, ACTION=LOAD, CONTROL=DISPLACEMENT, VALUE=0.05
**
** Constraints +++++++++++++++++++++++++++++++++++++++++++++
**
**
** Surface interactions ++++++++++++++++++++++++++++++++++++
**
**
** Contact pairs +++++++++++++++++++++++++++++++++++++++++++
**
**
** Amplitudes ++++++++++++++++++++++++++++++++++++++++++++++
**
**
** Initial conditions ++++++++++++++++++++++++++++++++++++++
**
**
** Steps +++++++++++++++++++++++++++++++++++++++++++++++++++
**
*SUPPORT, SUPPORT_COLLECTOR=BC
top, 0.0, 0.0, 0.0, NAN, NAN, NAN
bottom, 0.0, 0.0, 0.0, NAN, NAN, NAN
*CLOAD, LOAD_COLLECTOR=LOAD
top, 0.0, 0.0, 10.0, 0.0, 0.0, 0.0
*LOADCASE, TYPE=LINEARSTATIC, NAME=MERGED_FACE_PAIR_TEST
*SUPPORTS
BC
*LOADS
LOAD
*SOLVER, DEVICE=CPU, METHOD=DIRECT
*CONSTRAINTMETHOD, TYPE=LAGRANGE
*CONSTRAINTSUMMARY
*END
