*MODEL, NAME=039_C3D20_CUT_UNCUT_NEIGHBOR
*NODE, NSET=NALL
1,  -20.0, -20.0, -10.0
2,   20.0, -20.0, -10.0
3,   20.0,  20.0, -10.0
4,  -20.0,  20.0, -10.0
5,  -20.0, -20.0,  10.0
6,   20.0, -20.0,  10.0
7,   20.0,  20.0,  10.0
8,  -20.0,  20.0,  10.0
9,    0.0, -20.0, -10.0
10,  20.0,   0.0, -10.0
11,   0.0,  20.0, -10.0
12, -20.0,   0.0, -10.0
13,   0.0, -20.0,  10.0
14,  20.0,   0.0,  10.0
15,   0.0,  20.0,  10.0
16, -20.0,   0.0,  10.0
17, -20.0, -20.0,   0.0
18,  20.0, -20.0,   0.0
19,  20.0,  20.0,   0.0
20, -20.0,  20.0,   0.0
** ... 12 like lines cut
*ELEMENT, TYPE=C3D20, ELSET=SOLID
1, 1, 2, 3, 4, 5, 6, 7, 8, 9, 10, 11, 12, 13, 14, 15, 16, 17, 18, 19, 20
*ELEMENT, TYPE=C3D20R, ELSET=SOLID
2, 5, 6, 7, 8, 21, 22, 23, 24, 13, 14, 15, 16, 25, 26, 27, 28, 29, 30, 31, 32
*SURFACE, SFSET=PRETENSION_SURFACE
1, 1, 1
2, 1, 2
3, 1, 3
4, 1, 4
5, 1, 5
6, 1, 6
*PRETENSIONSECTION, NAME=PT1, SURFACE=PRETENSION_SURFACE, POSITION=MIDDLE
0.0, 0.0, 1.0
*PRETENSION, SECTION=PT1, ACTION=LOAD, CONTROL=DISPLACEMENT, VALUE=1.0
*MATERIAL, NAME=STEEL
*ELASTIC, TYPE=ISOTROPIC
210000.0, 0.3
*DENSITY
7.85e-9
*SOLIDSECTION, ELSET=SOLID, MATERIAL=STEEL
*NSET, NAME=FIXED
1, 2, 3, 4
*SUPPORT, SUPPORT_COLLECTOR=BC
FIXED, 0.0, 0.0, 0.0, NAN, NAN, NAN
*CLOAD, LOAD_COLLECTOR=LOAD
FIXED, 0.0, 0.0, 0.0, 0.0, 0.0, 0.0
*LOADCASE, TYPE=LINEARSTATIC, NAME=C3D20_CUT_UNCUT_NEIGHBOR_TEST
*SUPPORTS
BC
*LOADS
LOAD
*SOLVER, DEVICE=CPU, METHOD=DIRECT
*CONSTRAINTMETHOD, TYPE=LAGRANGE
*CONSTRAINTSUMMARY
*END
