**
** Heading +++++++++++++++++++++++++++++++++++++++++++++++++
**
*Heading
Hash: z4TaxxJH, Date: 08/19/2026, Unit system: MM_TON_S_C
**
** Nodes +++++++++++++++++++++++++++++++++++++++++++++++++++
**
*Node
17899, -2.00000000E+001, 2.44929360E-015, 8.00000000E+001
17900, 2.00000000E+001, 0.00000000E+000, 8.00000000E+001
17901, 2.00000000E+001, 4.89858720E-015, 4.00000000E+001
17902, -2.00000000E+001, 7.34788079E-015, 4.00000000E+001
17903, -8.50000000E+000, 1.04094978E-015, 8.00000000E+001
17904, 8.50000000E+000, 0.00000000E+000, 8.00000000E+001
17905, 8.50000000E+000, 4.89858720E-015, 4.00000000E+001
17906, -8.50000000E+000, 5.93953698E-015, 4.00000000E+001
17907, -1.96961551E+001, 3.47296355E+000, 8.00000000E+001
17908, -1.87938524E+001, 6.84040287E+000, 8.00000000E+001
17909, -1.73205081E+001, 1.00000000E+001, 8.00000000E+001
17910, -1.53208889E+001, 1.28557522E+001, 8.00000000E+001
17911, -1.28557522E+001, 1.53208889E+001, 8.00000000E+001
17912, -1.00000000E+001, 1.73205081E+001, 8.00000000E+001
17913, -6.84040287E+000, 1.87938524E+001, 8.00000000E+001
17914, -3.47296355E+000, 1.96961551E+001, 8.00000000E+001
17915, 6.73804545E-014, 2.00000000E+001, 8.00000000E+001
17916, 3.47296355E+000, 1.96961551E+001, 8.00000000E+001
17917, 6.84040287E+000, 1.87938524E+001, 8.00000000E+001
17918, 1.00000000E+001, 1.73205081E+001, 8.00000000E+001
** ... 20241 like lines cut
**
** Elements ++++++++++++++++++++++++++++++++++++++++++++++++
**
*Element, Type=C3D10, Elset=Solid_part-14
9385, 19860, 21326, 21353, 21389, 21684, 21685, 21686, 21687, 21689, 21688
9386, 20163, 21328, 21376, 21676, 21690, 21691, 21692, 21693, 21695, 21694
9387, 21359, 21459, 21427, 21610, 21696, 21697, 21698, 21699, 21701, 21700
9388, 21354, 21413, 21288, 21424, 21702, 21703, 21704, 21705, 21707, 21706
9389, 20515, 21343, 20545, 21654, 21708, 21709, 20834, 21710, 21712, 21711
9390, 18314, 21481, 21374, 21485, 21713, 21714, 21715, 21716, 21718, 21717
9391, 19878, 21311, 21392, 21595, 21719, 21720, 21721, 21722, 21724, 21723
9392, 19129, 21393, 21526, 21637, 21725, 21726, 21727, 21728, 21730, 21729
9393, 21360, 21496, 21406, 21583, 21731, 21732, 21733, 21734, 21736, 21735
9394, 20163, 21376, 21328, 21518, 21692, 21691, 21690, 21737, 21739, 21738
9395, 19878, 21392, 21311, 21632, 21721, 21720, 21719, 21740, 21742, 21741
9396, 19155, 21442, 21562, 21635, 21743, 21744, 21745, 21746, 21748, 21747
9397, 21314, 21421, 21346, 21562, 21749, 21750, 21751, 21752, 21754, 21753
9398, 18222, 21403, 21281, 21408, 21755, 21756, 21757, 21758, 21760, 21759
9399, 21346, 21396, 21338, 21439, 21761, 21762, 21763, 21764, 21766, 21765
9400, 19831, 21318, 21449, 21539, 21767, 21768, 21769, 21770, 21772, 21771
9401, 20215, 21338, 21396, 21439, 21773, 21762, 21774, 21775, 21765, 21766
9402, 21319, 21408, 18232, 21541, 21776, 21777, 21778, 21779, 21781, 21780
9403, 17950, 21424, 21300, 21571, 21782, 21783, 21784, 21785, 21787, 21786
9404, 20179, 21310, 21304, 21453, 21788, 21789, 21790, 21791, 21793, 21792
** ... 5144 like lines cut
*Element, Type=C3D10, Elset=Solid_part-15
14549, 29839, 29897, 29926, 30073, 30175, 30176, 30177, 30178, 30180, 30179
14550, 26774, 29951, 29930, 30088, 30181, 30182, 30183, 30184, 30186, 30185
14551, 27549, 29857, 29794, 29923, 30187, 30188, 30189, 30190, 30192, 30191
14552, 29872, 29990, 29873, 30026, 30193, 30194, 30195, 30196, 30198, 30197
14553, 29831, 29962, 29869, 30115, 30199, 30200, 30201, 30202, 30204, 30203
14554, 28244, 29800, 29925, 29954, 30205, 30206, 30207, 30208, 30210, 30209
14555, 29826, 28487, 30053, 30114, 30211, 30212, 30213, 30214, 30216, 30215
14556, 28206, 29919, 29892, 30004, 30217, 30218, 30219, 30220, 30222, 30221
14557, 29818, 30002, 26666, 30035, 30223, 30224, 30225, 30226, 30228, 30227
14558, 29870, 29981, 29932, 29996, 30229, 30230, 30231, 30232, 30234, 30233
14559, 29857, 29885, 27531, 29976, 30235, 30236, 30237, 30238, 30240, 30239
14560, 26770, 29883, 29963, 30065, 30241, 30242, 30243, 30244, 30246, 30245
14561, 28252, 29907, 29803, 29955, 30247, 30248, 30249, 30250, 30252, 30251
14562, 26738, 30007, 29904, 30046, 30253, 30254, 30255, 30256, 30258, 30257
14563, 27487, 30018, 29991, 30051, 30259, 30260, 30261, 30262, 30264, 30263
14564, 29861, 30033, 29848, 30077, 30265, 30266, 30267, 30268, 30270, 30269
14565, 28539, 29776, 29796, 29867, 30271, 30272, 30273, 30274, 30276, 30275
14566, 29914, 30043, 29835, 30055, 30277, 30278, 30279, 30280, 30282, 30281
14567, 29869, 30031, 29831, 30115, 30283, 30284, 30201, 30203, 30285, 30202
14568, 28511, 29985, 29957, 30038, 30286, 30287, 30288, 30289, 30291, 30290
** ... 5050 like lines cut
*Element, Type=C3D10, Elset=Solid_part-16
19619, 34846, 36730, 36726, 36735, 36739, 36740, 36741, 36742, 36744, 36743
19620, 35209, 35216, 35218, 36726, 35300, 35302, 35262, 36745, 36747, 36746
19621, 35209, 36726, 35218, 36732, 36745, 36746, 35262, 36748, 36750, 36749
19622, 35380, 35373, 36728, 36730, 35427, 36751, 36752, 36753, 36755, 36754
19623, 35085, 35084, 35077, 36727, 35178, 35145, 35179, 36756, 36758, 36757
19624, 35084, 35345, 35077, 36727, 36759, 36760, 35145, 36758, 36761, 36757
19625, 36726, 36730, 34846, 36732, 36740, 36739, 36741, 36750, 36763, 36762
19626, 34846, 36726, 35218, 36735, 36741, 36746, 35261, 36742, 36743, 36764
19627, 35380, 35371, 35373, 36730, 35399, 35426, 35427, 36753, 36765, 36755
19628, 34846, 35218, 36726, 36732, 35261, 36746, 36741, 36762, 36749, 36750
19629, 35209, 35216, 36726, 36732, 35300, 36747, 36745, 36748, 36766, 36750
19630, 35218, 36726, 35216, 36735, 36746, 36747, 35302, 36764, 36743, 36767
19631, 35076, 35380, 36728, 36730, 36768, 36752, 36769, 36770, 36753, 36754
19632, 34846, 35209, 35218, 36732, 35257, 35262, 35261, 36762, 36748, 36749
19633, 35077, 35085, 36727, 36732, 35179, 36756, 36757, 36771, 36773, 36772
19634, 35372, 35380, 35373, 36728, 35396, 35427, 35417, 36774, 36752, 36751
19635, 34847, 36730, 34846, 36735, 36775, 36739, 34851, 36776, 36744, 36742
19636, 35345, 35077, 36727, 36734, 36760, 36757, 36761, 36777, 36779, 36778
19637, 35077, 36732, 36727, 36734, 36771, 36772, 36757, 36779, 36780, 36778
19638, 35075, 35084, 35093, 36727, 35115, 35169, 35168, 36781, 36758, 36782
** ... 324 like lines cut
*Element, Type=C3D10, Elset=Solid_part-17
19963, 36998, 37008, 35459, 37014, 37028, 37029, 37030, 37031, 37033, 37032
19964, 35459, 37008, 36998, 37010, 37029, 37028, 37030, 37034, 37036, 37035
19965, 35458, 35438, 35481, 37013, 35629, 35550, 35617, 37037, 37039, 37038
19966, 35441, 36998, 35459, 37014, 37040, 37030, 35602, 37041, 37031, 37032
19967, 35743, 37003, 37002, 37020, 37042, 37043, 37044, 37045, 37047, 37046
19968, 36998, 37010, 37008, 37014, 37035, 37036, 37028, 37031, 37048, 37033
19969, 37002, 37003, 36992, 37020, 37043, 37049, 37050, 37046, 37047, 37051
19970, 35736, 35737, 35717, 37007, 35903, 35902, 35904, 37052, 37054, 37053
19971, 35456, 35458, 35435, 37006, 35613, 35612, 35614, 37055, 37057, 37056
19972, 36996, 37012, 36992, 37022, 37058, 37059, 37060, 37061, 37063, 37062
19973, 36998, 36994, 37010, 37014, 37064, 37065, 37035, 37031, 37066, 37048
19974, 36996, 37011, 35429, 37022, 37067, 37068, 37069, 37061, 37071, 37070
19975, 37008, 37010, 36994, 37014, 37036, 37065, 37072, 37033, 37048, 37066
19976, 36992, 37011, 36996, 37022, 37073, 37067, 37060, 37062, 37071, 37061
19977, 35486, 35439, 35479, 36995, 35546, 35633, 35554, 37074, 37076, 37075
19978, 35458, 37006, 35474, 37013, 37057, 37077, 35628, 37037, 37079, 37078
19979, 35743, 35741, 37003, 37020, 35985, 37080, 37042, 37045, 37081, 37047
19980, 35737, 35717, 37007, 37013, 35902, 37053, 37054, 37082, 37084, 37083
19981, 35429, 37012, 36996, 37022, 37085, 37058, 37069, 37070, 37063, 37061
19982, 35737, 36995, 35717, 37013, 37086, 37087, 35902, 37082, 37088, 37084
** ... 683 like lines cut
*Element, Type=C3D10, Elset=Solid_part-18
20666, 36219, 36212, 36220, 37585, 36300, 36302, 36301, 37594, 37596, 37595
20667, 36221, 36219, 36220, 37585, 36327, 36301, 36328, 37597, 37594, 37595
20668, 36236, 34973, 36229, 37588, 36262, 36279, 36281, 37598, 37600, 37599
20669, 36216, 37587, 36223, 37592, 37601, 37602, 36266, 37603, 37605, 37604
20670, 36083, 36078, 34974, 37589, 36149, 36148, 36144, 37606, 37608, 37607
20671, 34973, 37588, 36236, 37589, 37600, 37598, 36262, 37609, 37611, 37610
20672, 34974, 37585, 36078, 37592, 37612, 37613, 36148, 37614, 37616, 37615
20673, 36212, 37585, 36219, 37587, 37596, 37594, 36300, 37617, 37619, 37618
20674, 36221, 37585, 36233, 37592, 37597, 37620, 36336, 37621, 37616, 37622
20675, 36229, 34974, 37585, 37589, 36280, 37612, 37623, 37624, 37607, 37625
20676, 36221, 36219, 37585, 37587, 36327, 37594, 37597, 37626, 37618, 37619
20677, 36078, 37585, 34974, 37589, 37613, 37612, 36148, 37608, 37625, 37607
20678, 35344, 36082, 36101, 37591, 37627, 36134, 37628, 37629, 37631, 37630
20679, 36229, 34973, 34974, 37589, 36279, 34978, 36280, 37624, 37609, 37607
20680, 36229, 37585, 34974, 37592, 37623, 37612, 36280, 37632, 37616, 37614
20681, 37585, 37587, 36212, 37591, 37619, 37617, 37596, 37633, 37635, 37634
20682, 36235, 35345, 36216, 37592, 37636, 37637, 36265, 37638, 37639, 37603
20683, 36229, 37588, 34973, 37589, 37599, 37600, 36279, 37624, 37611, 37609
20684, 36054, 34973, 36236, 37589, 37640, 36262, 37641, 37642, 37609, 37610
20685, 36212, 36220, 37585, 37590, 36302, 37595, 37596, 37643, 37645, 37644
** ... 270 like lines cut
*Element, Type=C3D10, Elset=Solid_part-19
20956, 35374, 35373, 37798, 37799, 35419, 37815, 37816, 37817, 37819, 37818
20957, 34885, 37799, 37806, 37808, 37820, 37821, 37822, 37823, 37825, 37824
20958, 35373, 35369, 35374, 37798, 35416, 35418, 35419, 37815, 37826, 37816
20959, 34818, 37803, 34837, 37804, 37827, 37828, 34843, 37829, 37831, 37830
20960, 34885, 37799, 35375, 37806, 37820, 37832, 35409, 37822, 37821, 37833
20961, 37799, 37800, 35375, 37806, 37834, 37835, 37832, 37821, 37836, 37833
20962, 34818, 34837, 37803, 37810, 34843, 37828, 37827, 37837, 37839, 37838
20963, 36583, 37806, 37799, 37808, 37840, 37821, 37841, 37842, 37824, 37825
20964, 36583, 37800, 37799, 37806, 37843, 37834, 37841, 37840, 37836, 37821
20965, 34885, 35375, 34886, 37806, 35409, 35383, 34891, 37822, 37833, 37844
20966, 34837, 37804, 37803, 37810, 37830, 37831, 37828, 37839, 37845, 37838
20967, 35374, 35376, 35373, 37804, 35428, 35424, 35419, 37846, 37848, 37847
20968, 35374, 37798, 35369, 37800, 37816, 37826, 35418, 37849, 37851, 37850
20969, 35374, 35373, 37799, 37804, 35419, 37819, 37817, 37846, 37847, 37852
20970, 35374, 37799, 37798, 37800, 37817, 37818, 37816, 37849, 37834, 37851
20971, 35372, 35369, 37798, 37800, 35393, 37826, 37853, 37854, 37850, 37851
20972, 37807, 37810, 36588, 37814, 37855, 37856, 37857, 37858, 37860, 37859
20973, 35377, 34818, 34837, 37804, 35387, 34843, 35386, 37861, 37829, 37830
20974, 36477, 37807, 34836, 37810, 37862, 37863, 36514, 37864, 37855, 37865
20975, 34818, 37803, 36468, 37810, 37827, 37866, 36487, 37837, 37838, 37867
** ... 444 like lines cut
**
** Node sets +++++++++++++++++++++++++++++++++++++++++++++++
**
*Nset, Nset=bottom
26415, 26416, 26419, 26420, 26479, 26480, 26481, 26482, 26483, 26484, 26485, 26486, 26487, 26488, 26489, 26490, 
26491, 26492, 26493, 26494, 26495, 26496, 26497, 26498, 26499, 26500, 26501, 26502, 26503, 26504, 26505, 26506, 
26507, 26508, 26509, 26510, 26511, 26512, 26513, 26514, 26515, 26516, 26517, 26537, 26538, 26539, 26540, 26541, 
26542, 26543, 26544, 26545, 26546, 26547, 26548, 26549, 26550, 26551, 26552, 26553, 26554, 26555, 26556, 26557, 
26558, 26559, 26560, 26561, 26562, 26563, 26564, 26565, 26566, 26567, 26568, 26569, 26570, 26571, 26572, 26573, 
26574, 26575, 26649, 26650, 26651, 26652, 26653, 26654, 26655, 26656, 26657, 26658, 26659, 26660, 26661, 26662, 
26663, 26683, 26684, 26685, 26686, 26687, 26688, 26689, 26690, 26691, 26692, 26693, 26694, 26695, 26696, 26697, 
29265, 29266, 29267, 29268, 29269, 29270, 29271, 29272, 29273, 29274, 29275, 29276, 29277, 29278, 29279, 29280, 
29281, 29282, 29283, 29284, 29285, 29286, 29287, 29288, 29289, 29290, 29291, 29292, 29293, 29294, 29295, 29296, 
29297, 29298, 29299, 29300, 29301, 29302, 29303, 29304, 29305, 29306, 29307, 29308, 29309, 29310, 29311, 29312, 
29313, 29314, 29315, 29316, 29317, 29318, 29319, 29320, 29321, 29322, 29323, 29324, 29325, 29326, 29327, 29328, 
29329, 29330, 29331, 29332, 29333, 29334, 29335, 29336, 29337, 29338, 29339, 29340, 29341, 29342, 29343, 29344, 
29345, 29346, 29347, 29348, 29349, 29350, 29351, 29352, 29353, 29354, 29355, 29356, 29357, 29358, 29359, 29360, 
29361, 29362, 29363, 29364, 29365, 29366, 29367, 29368, 29369, 29370, 29371, 29372, 29373, 29374, 29375, 29376, 
29377, 29378, 29379, 29380, 29381, 29382, 29383, 29384, 29385, 29386, 29387, 29388, 29389, 29390, 29391, 29392, 
29393, 29394, 29395, 29396, 29397, 29398, 29399, 29400, 29401, 29402, 29403, 29404, 29405, 29406, 29407, 29408, 
29409, 29410, 29411, 29412, 29413, 29414, 29415, 29416, 29417, 29418, 29419, 29420, 29421, 29422, 29423, 29424, 
29425, 29426, 29427, 29428, 29429, 29430, 29431, 29432, 29433, 29434, 29435, 29436, 29437, 29438, 29439, 29440, 
29441, 29442, 29443, 29444, 29445, 29446, 29447, 29448, 29449, 29450, 29451, 29452, 29453, 29454, 29455, 29456, 
29457, 29458, 29459, 29460, 29461, 29462, 29463, 29464, 29465, 29466, 29467, 29468, 29469, 29470, 29471, 29472, 
** ... 19 like lines cut
*Nset, Nset=Internal-1_Surface-1
34819, 34820, 34821, 34822, 34853, 34854, 34855, 34856, 34857, 34858, 34859, 34860, 34861, 34862, 34872, 34873, 
34874, 34875, 34876, 34877, 34878, 34879, 34880, 34881, 35343, 35344, 35345, 35346, 35347, 35348, 35349, 35350, 
35351, 35352, 35353, 35354, 35355, 35356, 35357, 35358, 35359, 35360, 35361, 35362, 35363, 35364, 35365, 35366, 
35367
*Nset, Nset=Internal-1_Surface-2
34819, 34820, 34821, 34822, 34853, 34854, 34855, 34856, 34857, 34858, 34859, 34860, 34861, 34862, 34872, 34873, 
34874, 34875, 34876, 34877, 34878, 34879, 34880, 34881, 35343, 35344, 35345, 35346, 35347, 35348, 35349, 35350, 
35351, 35352, 35353, 35354, 35355, 35356, 35357, 35358, 35359, 35360, 35361, 35362, 35363, 35364, 35365, 35366, 
35367
*Nset, Nset=Internal-1_Internal_Selection-1_Solid_part-17_to_Solid_part-15_Master
34823, 34824, 34825, 34826, 34827, 34828, 34893, 34894, 34895, 34896, 34897, 34898, 34899, 34900, 34901, 34902, 
34903, 34904, 34905, 34906, 34907, 34908, 34909, 34910, 34911, 34912, 34913, 34914, 34915, 34916, 34917, 34918, 
34919, 34920, 34921, 34922, 34923, 34924, 34925, 34926, 34927, 34928, 34929, 34930, 34931, 34932, 34933, 34934, 
34935, 34936, 34937, 34938, 34939, 34940, 34941, 34942, 34943, 34944, 34945, 34946, 34947, 34948, 34949, 34950, 
34951, 34952, 34953, 34954, 34955, 34956, 34957, 34958, 34959, 34960, 34961, 34962, 34963, 34964, 34965, 34966, 
34967, 34968, 34969, 34970, 34971, 34972, 35429, 35430, 35431, 35432, 35433, 35434, 35435, 35436, 35437, 35438, 
35439, 35440, 35441, 35442, 35443, 35444, 35445, 35446, 35447, 35448, 35449, 35450, 35451, 35452, 35453, 35454, 
35455, 35456, 35457, 35458, 35459, 35460, 35461, 35462, 35463, 35464, 35465, 35466, 35467, 35468, 35469, 35470, 
35471, 35472, 35473, 35474, 35475, 35476, 35477, 35478, 35479, 35480, 35481, 35482, 35483, 35484, 35485, 35486, 
35487, 35488, 35489, 35490, 35491, 35492, 35493, 35494, 35495, 35496, 35497, 35498, 35499, 35500, 35501, 35502, 
35503, 35504, 35505, 35506, 35507, 35508, 35509, 35510, 35511, 35512, 35513, 35514, 35515, 35516, 35517, 35518, 
35519, 35520, 35521, 35522, 35523, 35524, 35525, 35526, 35527, 35528, 35529, 35530, 35531, 35532, 35533, 35534, 
35535, 35536, 35537, 35538, 35539, 35540, 35541, 35542, 35543, 35544, 35545, 35546, 35547, 35548, 35549, 35550, 
35551, 35552, 35553, 35554, 35555, 35556, 35557, 35558, 35559, 35560, 35561, 35562, 35563, 35564, 35565, 35566, 
35567, 35568, 35569, 35570, 35571, 35572, 35573, 35574, 35575, 35576, 35577, 35578, 35579, 35580, 35581, 35582, 
35583, 35584, 35585, 35586, 35587, 35588, 35589, 35590, 35591, 35592, 35593, 35594, 35595, 35596, 35597, 35598, 
35599, 35600, 35601, 35602, 35603, 35604, 35605, 35606, 35607, 35608, 35609, 35610, 35611, 35612, 35613, 35614, 
35615, 35616, 35617, 35618, 35619, 35620, 35621, 35622, 35623, 35624, 35625, 35626, 35627, 35628, 35629, 35630, 
35631, 35632, 35633, 35634, 35635, 35636, 35637, 35638, 35639, 35640, 35641, 35642, 35643, 35644, 35645, 35646, 
35647, 35648, 35649, 35650, 35651, 35652, 35653, 35654, 35655, 35656, 35657, 35658, 35659, 35660, 35661, 35662, 
** ... 21 like lines cut
*Nset, Nset=Internal-1_Internal_Selection-1_Solid_part-17_to_Solid_part-15_Slave
26417, 26418, 26419, 26420, 26615, 26616, 26617, 26618, 26619, 26620, 26621, 26622, 26623, 26624, 26625, 26626, 
26627, 26628, 26629, 26630, 26631, 26632, 26633, 26634, 26635, 26636, 26637, 26638, 26639, 26640, 26641, 26642, 
26643, 26644, 26645, 26646, 26647, 26648, 26649, 26650, 26651, 26652, 26653, 26654, 26655, 26656, 26657, 26658, 
26659, 26660, 26661, 26662, 26663, 26664, 26665, 26666, 26667, 26668, 26669, 26670, 26671, 26672, 26673, 26674, 
26675, 26676, 26677, 26678, 26679, 26680, 26681, 26682, 26683, 26684, 26685, 26686, 26687, 26688, 26689, 26690, 
26691, 26692, 26693, 26694, 26695, 26696, 26697, 26698, 26699, 26700, 26701, 26702, 26703, 26704, 26705, 26706, 
26707, 26708, 26709, 26710, 26711, 26712, 28195, 28196, 28197, 28198, 28199, 28200, 28201, 28202, 28203, 28204, 
28205, 28206, 28207, 28208, 28209, 28210, 28211, 28212, 28213, 28214, 28215, 28216, 28217, 28218, 28219, 28220, 
28221, 28222, 28223, 28224, 28225, 28226, 28227, 28228, 28229, 28230, 28231, 28232, 28233, 28234, 28235, 28236, 
28237, 28238, 28239, 28240, 28241, 28242, 28243, 28244, 28245, 28246, 28247, 28248, 28249, 28250, 28251, 28252, 
28253, 28254, 28255, 28256, 28257, 28258, 28259, 28260, 28261, 28262, 28263, 28264, 28265, 28266, 28267, 28268, 
28269, 28270, 28271, 28272, 28273, 28274, 28275, 28276, 28277, 28278, 28279, 28280, 28281, 28282, 28283, 28284, 
28285, 28286, 28287, 28288, 28289, 28290, 28291, 28292, 28293, 28294, 28295, 28296, 28297, 28298, 28299, 28300, 
28301, 28302, 28303, 28304, 28305, 28306, 28307, 28308, 28309, 28310, 28311, 28312, 28313, 28314, 28315, 28316, 
28317, 28318, 28319, 28320, 28321, 28322, 28323, 28324, 28325, 28326, 28327, 28328, 28329, 28330, 28331, 28332, 
28333, 28334, 28335, 28336, 28337, 28338, 28339, 28340, 28341, 28342, 28343, 28344, 28345, 28346, 28347, 28348, 
28349, 28350, 28351, 28352, 28353, 28354, 28355, 28356, 28357, 28358, 28359, 28360, 28361, 28362, 28363, 28364, 
28365, 28366, 28367, 28368, 28369, 28370, 28371, 28372, 28373, 28374, 28375, 28376, 28377, 28378, 28379, 28380, 
28381, 28382, 28383, 28384, 28385, 28386, 28387, 28388, 28389, 28390, 28391, 28392, 28393, 28394, 28395, 28396, 
28397, 28398, 28399, 28400, 28401, 28402, 28403, 28404, 28405, 28406, 28407, 28408, 28409, 28410, 28411, 28412, 
** ... 22 like lines cut
*Nset, Nset=Internal-1_Internal_Selection-1_Solid_part-15_to_Solid_part-14_Master
26413, 26414, 26417, 26418, 26421, 26422, 26423, 26424, 26425, 26426, 26427, 26428, 26429, 26430, 26431, 26432, 
26433, 26434, 26435, 26436, 26437, 26438, 26439, 26440, 26441, 26442, 26443, 26444, 26445, 26446, 26447, 26448, 
26449, 26450, 26451, 26452, 26453, 26454, 26455, 26456, 26457, 26458, 26459, 26576, 26577, 26578, 26579, 26580, 
26581, 26582, 26583, 26584, 26585, 26586, 26587, 26588, 26589, 26590, 26591, 26592, 26593, 26594, 26595, 26596, 
26597, 26598, 26599, 26600, 26601, 26602, 26603, 26604, 26605, 26606, 26607, 26608, 26609, 26610, 26611, 26612, 
26613, 26614, 26615, 26616, 26617, 26618, 26619, 26620, 26621, 26622, 26623, 26624, 26625, 26626, 26627, 26628, 
26629, 26698, 26699, 26700, 26701, 26702, 26703, 26704, 26705, 26706, 26707, 26708, 26709, 26710, 26711, 26712, 
28765, 28766, 28767, 28768, 28769, 28770, 28771, 28772, 28773, 28774, 28775, 28776, 28777, 28778, 28779, 28780, 
28781, 28782, 28783, 28784, 28785, 28786, 28787, 28788, 28789, 28790, 28791, 28792, 28793, 28794, 28795, 28796, 
28797, 28798, 28799, 28800, 28801, 28802, 28803, 28804, 28805, 28806, 28807, 28808, 28809, 28810, 28811, 28812, 
28813, 28814, 28815, 28816, 28817, 28818, 28819, 28820, 28821, 28822, 28823, 28824, 28825, 28826, 28827, 28828, 
28829, 28830, 28831, 28832, 28833, 28834, 28835, 28836, 28837, 28838, 28839, 28840, 28841, 28842, 28843, 28844, 
28845, 28846, 28847, 28848, 28849, 28850, 28851, 28852, 28853, 28854, 28855, 28856, 28857, 28858, 28859, 28860, 
28861, 28862, 28863, 28864, 28865, 28866, 28867, 28868, 28869, 28870, 28871, 28872, 28873, 28874, 28875, 28876, 
28877, 28878, 28879, 28880, 28881, 28882, 28883, 28884, 28885, 28886, 28887, 28888, 28889, 28890, 28891, 28892, 
28893, 28894, 28895, 28896, 28897, 28898, 28899, 28900, 28901, 28902, 28903, 28904, 28905, 28906, 28907, 28908, 
28909, 28910, 28911, 28912, 28913, 28914, 28915, 28916, 28917, 28918, 28919, 28920, 28921, 28922, 28923, 28924, 
28925, 28926, 28927, 28928, 28929, 28930, 28931, 28932, 28933, 28934, 28935, 28936, 28937, 28938, 28939, 28940, 
28941, 28942, 28943, 28944, 28945, 28946, 28947, 28948, 28949, 28950, 28951, 28952, 28953, 28954, 28955, 28956, 
28957, 28958, 28959, 28960, 28961, 28962, 28963, 28964, 28965, 28966, 28967, 28968, 28969, 28970, 28971, 28972, 
** ... 19 like lines cut
*Nset, Nset=Internal-1_Internal_Selection-1_Solid_part-15_to_Solid_part-14_Slave
17901, 17902, 17905, 17906, 17965, 17966, 17967, 17968, 17969, 17970, 17971, 17972, 17973, 17974, 17975, 17976, 
17977, 17978, 17979, 17980, 17981, 17982, 17983, 17984, 17985, 17986, 17987, 17988, 17989, 17990, 17991, 17992, 
17993, 17994, 17995, 17996, 17997, 17998, 17999, 18023, 18024, 18025, 18026, 18027, 18028, 18029, 18030, 18031, 
18032, 18033, 18034, 18035, 18036, 18037, 18038, 18039, 18040, 18041, 18042, 18043, 18044, 18045, 18046, 18047, 
18048, 18049, 18050, 18051, 18052, 18053, 18054, 18055, 18056, 18057, 18131, 18132, 18133, 18134, 18135, 18136, 
18137, 18138, 18139, 18140, 18141, 18142, 18143, 18144, 18145, 18169, 18170, 18171, 18172, 18173, 18174, 18175, 
18176, 18177, 18178, 18179, 18180, 18181, 18182, 18183, 20887, 20888, 20889, 20890, 20891, 20892, 20893, 20894, 
20895, 20896, 20897, 20898, 20899, 20900, 20901, 20902, 20903, 20904, 20905, 20906, 20907, 20908, 20909, 20910, 
20911, 20912, 20913, 20914, 20915, 20916, 20917, 20918, 20919, 20920, 20921, 20922, 20923, 20924, 20925, 20926, 
20927, 20928, 20929, 20930, 20931, 20932, 20933, 20934, 20935, 20936, 20937, 20938, 20939, 20940, 20941, 20942, 
20943, 20944, 20945, 20946, 20947, 20948, 20949, 20950, 20951, 20952, 20953, 20954, 20955, 20956, 20957, 20958, 
20959, 20960, 20961, 20962, 20963, 20964, 20965, 20966, 20967, 20968, 20969, 20970, 20971, 20972, 20973, 20974, 
20975, 20976, 20977, 20978, 20979, 20980, 20981, 20982, 20983, 20984, 20985, 20986, 20987, 20988, 20989, 20990, 
20991, 20992, 20993, 20994, 20995, 20996, 20997, 20998, 20999, 21000, 21001, 21002, 21003, 21004, 21005, 21006, 
21007, 21008, 21009, 21010, 21011, 21012, 21013, 21014, 21015, 21016, 21017, 21018, 21019, 21020, 21021, 21022, 
21023, 21024, 21025, 21026, 21027, 21028, 21029, 21030, 21031, 21032, 21033, 21034, 21035, 21036, 21037, 21038, 
21039, 21040, 21041, 21042, 21043, 21044, 21045, 21046, 21047, 21048, 21049, 21050, 21051, 21052, 21053, 21054, 
21055, 21056, 21057, 21058, 21059, 21060, 21061, 21062, 21063, 21064, 21065, 21066, 21067, 21068, 21069, 21070, 
21071, 21072, 21073, 21074, 21075, 21076, 21077, 21078, 21079, 21080, 21081, 21082, 21083, 21084, 21085, 21086, 
21087, 21088, 21089, 21090, 21091, 21092, 21093, 21094, 21095, 21096, 21097, 21098, 21099, 21100, 21101, 21102, 
** ... 11 like lines cut
*Nset, Nset=Internal-1_Internal_Selection-1_Solid_part-14_to_Solid_part-19_Master
17899, 17900, 17903, 17904, 17907, 17908, 17909, 17910, 17911, 17912, 17913, 17914, 17915, 17916, 17917, 17918, 
17919, 17920, 17921, 17922, 17923, 17924, 17925, 17926, 17927, 17928, 17929, 17930, 17931, 17932, 17933, 17934, 
17935, 17936, 17937, 17938, 17939, 17940, 17941, 18058, 18059, 18060, 18061, 18062, 18063, 18064, 18065, 18066, 
18067, 18068, 18069, 18070, 18071, 18072, 18073, 18074, 18075, 18076, 18077, 18078, 18079, 18080, 18081, 18082, 
18083, 18084, 18085, 18086, 18087, 18088, 18089, 18090, 18091, 18092, 18093, 18094, 18095, 18096, 18097, 18098, 
18099, 18100, 18101, 18102, 18103, 18104, 18105, 18106, 18107, 18184, 18185, 18186, 18187, 18188, 18189, 18190, 
18191, 18192, 18193, 18194, 18195, 18196, 18197, 18198, 20499, 20500, 20501, 20502, 20503, 20504, 20505, 20506, 
20507, 20508, 20509, 20510, 20511, 20512, 20513, 20514, 20515, 20516, 20517, 20518, 20519, 20520, 20521, 20522, 
20523, 20524, 20525, 20526, 20527, 20528, 20529, 20530, 20531, 20532, 20533, 20534, 20535, 20536, 20537, 20538, 
20539, 20540, 20541, 20542, 20543, 20544, 20545, 20546, 20547, 20548, 20549, 20550, 20551, 20552, 20553, 20554, 
20555, 20556, 20557, 20558, 20559, 20560, 20561, 20562, 20563, 20564, 20565, 20566, 20567, 20568, 20569, 20570, 
20571, 20572, 20573, 20574, 20575, 20576, 20577, 20578, 20579, 20580, 20581, 20582, 20583, 20584, 20585, 20586, 
20587, 20588, 20589, 20590, 20591, 20592, 20593, 20594, 20595, 20596, 20597, 20598, 20599, 20600, 20601, 20602, 
20603, 20604, 20605, 20606, 20607, 20608, 20609, 20610, 20611, 20612, 20613, 20614, 20615, 20616, 20617, 20618, 
20619, 20620, 20621, 20622, 20623, 20624, 20625, 20626, 20627, 20628, 20629, 20630, 20631, 20632, 20633, 20634, 
20635, 20636, 20637, 20638, 20639, 20640, 20641, 20642, 20643, 20644, 20645, 20646, 20647, 20648, 20649, 20650, 
20651, 20652, 20653, 20654, 20655, 20656, 20657, 20658, 20659, 20660, 20661, 20662, 20663, 20664, 20665, 20666, 
20667, 20668, 20669, 20670, 20671, 20672, 20673, 20674, 20675, 20676, 20677, 20678, 20679, 20680, 20681, 20682, 
20683, 20684, 20685, 20686, 20687, 20688, 20689, 20690, 20691, 20692, 20693, 20694, 20695, 20696, 20697, 20698, 
20699, 20700, 20701, 20702, 20703, 20704, 20705, 20706, 20707, 20708, 20709, 20710, 20711, 20712, 20713, 20714, 
** ... 11 like lines cut
*Nset, Nset=Internal-1_Internal_Selection-1_Solid_part-14_to_Solid_part-19_Slave
34817, 34818, 34829, 34830, 34833, 34834, 34835, 34836, 34837, 34838, 34839, 34840, 34841, 34842, 34843, 34882, 
34883, 34884, 34885, 34886, 34887, 34888, 34889, 34890, 34891, 34892, 34991, 34992, 34993, 34994, 34995, 34996, 
34997, 34998, 34999, 35000, 35001, 35002, 35003, 35004, 35005, 35006, 35007, 35008, 35009, 35054, 35055, 35056, 
35057, 35058, 35059, 35060, 35061, 35062, 35063, 35064, 35065, 35066, 35067, 35068, 35069, 35070, 35071, 35072, 
36461, 36462, 36463, 36464, 36465, 36466, 36467, 36468, 36469, 36470, 36471, 36472, 36473, 36474, 36475, 36476, 
36477, 36478, 36479, 36480, 36481, 36482, 36483, 36484, 36485, 36486, 36487, 36488, 36489, 36490, 36491, 36492, 
36493, 36494, 36495, 36496, 36497, 36498, 36499, 36500, 36501, 36502, 36503, 36504, 36505, 36506, 36507, 36508, 
36509, 36510, 36511, 36512, 36513, 36514, 36515, 36516, 36517, 36518, 36519, 36520, 36521, 36522, 36523, 36524, 
36525, 36526, 36527, 36528, 36529, 36530, 36531, 36532, 36533, 36534, 36535, 36536, 36537, 36538, 36539, 36540, 
36541, 36542, 36543, 36544, 36545, 36546, 36547, 36548, 36549, 36550, 36551, 36552, 36553, 36554, 36555, 36556, 
36557, 36558, 36559, 36560, 36561, 36562, 36563, 36564, 36565, 36566, 36567, 36568, 36569, 36570, 36571, 36572
*Nset, Nset=top
17899, 17900, 17903, 17904, 17907, 17908, 17909, 17910, 17911, 17912, 17913, 17914, 17915, 17916, 17917, 17918, 
17919, 17920, 17921, 17922, 17923, 17924, 17925, 17926, 17927, 17928, 17929, 17930, 17931, 17932, 17933, 17934, 
17935, 17936, 17937, 17938, 17939, 17940, 17941, 18058, 18059, 18060, 18061, 18062, 18063, 18064, 18065, 18066, 
18067, 18068, 18069, 18070, 18071, 18072, 18073, 18074, 18075, 18076, 18077, 18078, 18079, 18080, 18081, 18082, 
18083, 18084, 18085, 18086, 18087, 18088, 18089, 18090, 18091, 18092, 18093, 18094, 18095, 18096, 18097, 18098, 
18099, 18100, 18101, 18102, 18103, 18104, 18105, 18106, 18107, 18184, 18185, 18186, 18187, 18188, 18189, 18190, 
18191, 18192, 18193, 18194, 18195, 18196, 18197, 18198, 20499, 20500, 20501, 20502, 20503, 20504, 20505, 20506, 
20507, 20508, 20509, 20510, 20511, 20512, 20513, 20514, 20515, 20516, 20517, 20518, 20519, 20520, 20521, 20522, 
20523, 20524, 20525, 20526, 20527, 20528, 20529, 20530, 20531, 20532, 20533, 20534, 20535, 20536, 20537, 20538, 
20539, 20540, 20541, 20542, 20543, 20544, 20545, 20546, 20547, 20548, 20549, 20550, 20551, 20552, 20553, 20554, 
20555, 20556, 20557, 20558, 20559, 20560, 20561, 20562, 20563, 20564, 20565, 20566, 20567, 20568, 20569, 20570, 
20571, 20572, 20573, 20574, 20575, 20576, 20577, 20578, 20579, 20580, 20581, 20582, 20583, 20584, 20585, 20586, 
20587, 20588, 20589, 20590, 20591, 20592, 20593, 20594, 20595, 20596, 20597, 20598, 20599, 20600, 20601, 20602, 
20603, 20604, 20605, 20606, 20607, 20608, 20609, 20610, 20611, 20612, 20613, 20614, 20615, 20616, 20617, 20618, 
20619, 20620, 20621, 20622, 20623, 20624, 20625, 20626, 20627, 20628, 20629, 20630, 20631, 20632, 20633, 20634, 
20635, 20636, 20637, 20638, 20639, 20640, 20641, 20642, 20643, 20644, 20645, 20646, 20647, 20648, 20649, 20650, 
20651, 20652, 20653, 20654, 20655, 20656, 20657, 20658, 20659, 20660, 20661, 20662, 20663, 20664, 20665, 20666, 
20667, 20668, 20669, 20670, 20671, 20672, 20673, 20674, 20675, 20676, 20677, 20678, 20679, 20680, 20681, 20682, 
20683, 20684, 20685, 20686, 20687, 20688, 20689, 20690, 20691, 20692, 20693, 20694, 20695, 20696, 20697, 20698, 
20699, 20700, 20701, 20702, 20703, 20704, 20705, 20706, 20707, 20708, 20709, 20710, 20711, 20712, 20713, 20714, 
** ... 11 like lines cut
**
** Element sets ++++++++++++++++++++++++++++++++++++++++++++
**
*Elset, Elset=all
9385, 9386, 9387, 9388, 9389, 9390, 9391, 9392, 9393, 9394, 9395, 9396, 9397, 9398, 9399, 9400, 
9401, 9402, 9403, 9404, 9405, 9406, 9407, 9408, 9409, 9410, 9411, 9412, 9413, 9414, 9415, 9416, 
9417, 9418, 9419, 9420, 9421, 9422, 9423, 9424, 9425, 9426, 9427, 9428, 9429, 9430, 9431, 9432, 
9433, 9434, 9435, 9436, 9437, 9438, 9439, 9440, 9441, 9442, 9443, 9444, 9445, 9446, 9447, 9448, 
9449, 9450, 9451, 9452, 9453, 9454, 9455, 9456, 9457, 9458, 9459, 9460, 9461, 9462, 9463, 9464, 
9465, 9466, 9467, 9468, 9469, 9470, 9471, 9472, 9473, 9474, 9475, 9476, 9477, 9478, 9479, 9480, 
9481, 9482, 9483, 9484, 9485, 9486, 9487, 9488, 9489, 9490, 9491, 9492, 9493, 9494, 9495, 9496, 
9497, 9498, 9499, 9500, 9501, 9502, 9503, 9504, 9505, 9506, 9507, 9508, 9509, 9510, 9511, 9512, 
9513, 9514, 9515, 9516, 9517, 9518, 9519, 9520, 9521, 9522, 9523, 9524, 9525, 9526, 9527, 9528, 
9529, 9530, 9531, 9532, 9533, 9534, 9535, 9536, 9537, 9538, 9539, 9540, 9541, 9542, 9543, 9544, 
9545, 9546, 9547, 9548, 9549, 9550, 9551, 9552, 9553, 9554, 9555, 9556, 9557, 9558, 9559, 9560, 
9561, 9562, 9563, 9564, 9565, 9566, 9567, 9568, 9569, 9570, 9571, 9572, 9573, 9574, 9575, 9576, 
9577, 9578, 9579, 9580, 9581, 9582, 9583, 9584, 9585, 9586, 9587, 9588, 9589, 9590, 9591, 9592, 
9593, 9594, 9595, 9596, 9597, 9598, 9599, 9600, 9601, 9602, 9603, 9604, 9605, 9606, 9607, 9608, 
9609, 9610, 9611, 9612, 9613, 9614, 9615, 9616, 9617, 9618, 9619, 9620, 9621, 9622, 9623, 9624, 
9625, 9626, 9627, 9628, 9629, 9630, 9631, 9632, 9633, 9634, 9635, 9636, 9637, 9638, 9639, 9640, 
9641, 9642, 9643, 9644, 9645, 9646, 9647, 9648, 9649, 9650, 9651, 9652, 9653, 9654, 9655, 9656, 
9657, 9658, 9659, 9660, 9661, 9662, 9663, 9664, 9665, 9666, 9667, 9668, 9669, 9670, 9671, 9672, 
9673, 9674, 9675, 9676, 9677, 9678, 9679, 9680, 9681, 9682, 9683, 9684, 9685, 9686, 9687, 9688, 
9689, 9690, 9691, 9692, 9693, 9694, 9695, 9696, 9697, 9698, 9699, 9700, 9701, 9702, 9703, 9704, 
** ... 733 like lines cut
*Elset, Elset=Internal-1_Surface-1_S1
19885, 19886, 19935, 19941, 19946, 19947, 19954, 19955, 19956, 19962
*Elset, Elset=Internal-1_Surface-1_S2
19897, 19898, 19922, 19929, 19939, 19960
*Elset, Elset=Internal-1_Surface-1_S3
19957, 19958
*Elset, Elset=Internal-1_Surface-2_S1
20864, 20865, 20920, 20938, 20942
*Elset, Elset=Internal-1_Surface-2_S3
20884, 20934, 20937, 20941
*Elset, Elset=Internal-1_Surface-2_S2
20885, 20909, 20912, 20918, 20922, 20932, 20945
*Elset, Elset=Internal-1_Surface-2_S4
20925, 20955
*Elset, Elset=Internal-1_Internal_Selection-1_Solid_part-17_to_Solid_part-15_Master_S1
19965, 19970, 19971, 19977, 19987, 19995, 19998, 20005, 20007, 20008, 20012, 20020, 20026, 20030, 20033, 20041, 
20049, 20050, 20055, 20057, 20058, 20059, 20060, 20066, 20067, 20069, 20070, 20071, 20073, 20088, 20090, 20102, 
20105, 20110, 20111, 20122, 20130, 20131, 20135, 20139, 20142, 20148, 20155, 20156, 20158, 20165, 20167, 20169, 
20176, 20178, 20181, 20182, 20183, 20185, 20196, 20200, 20208, 20211, 20215, 20220, 20224, 20230, 20231, 20233, 
20237, 20238, 20248, 20251, 20259, 20263, 20264, 20269, 20273, 20275, 20278, 20279, 20284, 20289, 20291, 20293, 
20298, 20301, 20303, 20304, 20305, 20308, 20310, 20311, 20312, 20314, 20315, 20319, 20321, 20323, 20324, 20326, 
20327, 20329, 20335, 20336, 20337, 20338, 20342, 20347, 20349, 20350, 20351, 20357, 20358, 20359, 20361, 20365, 
20368, 20369, 20375, 20376, 20377, 20379, 20380, 20381, 20383, 20385, 20390, 20392, 20394, 20395, 20396, 20398, 
20400, 20402, 20403, 20405, 20407, 20409, 20411, 20412, 20420, 20423, 20425, 20426, 20429, 20435, 20437, 20440, 
20442, 20445, 20447, 20452, 20453, 20456, 20458, 20459, 20465, 20468, 20469, 20472, 20473, 20474, 20476, 20479, 
20480, 20481, 20482, 20483, 20484, 20486, 20489, 20492, 20495, 20496, 20498, 20501, 20502, 20503, 20504, 20505, 
20507, 20508, 20509, 20510, 20511, 20512, 20514, 20516, 20517, 20518, 20519, 20520, 20521, 20523, 20524, 20527, 
20529, 20530, 20531, 20534, 20535, 20537, 20538, 20540, 20543, 20544, 20545, 20550, 20551, 20552, 20554, 20555, 
20556, 20557, 20558, 20559, 20561, 20563, 20566, 20568, 20569, 20570, 20571, 20572, 20576, 20578, 20580, 20582, 
20584, 20585, 20586, 20587, 20588, 20589, 20590, 20591, 20592, 20593, 20594, 20598, 20599, 20601, 20602, 20603, 
20604, 20605, 20606, 20607, 20609, 20611, 20612, 20613, 20618, 20619, 20620, 20621, 20623, 20629, 20630, 20632, 
20638, 20640, 20644, 20645, 20647, 20650, 20652, 20653, 20655, 20657, 20658
*Elset, Elset=Internal-1_Internal_Selection-1_Solid_part-17_to_Solid_part-15_Master_S2
20037, 20539, 20573, 20583, 20597, 20624, 20626, 20627, 20631, 20634, 20637, 20653, 20659, 20660, 20661
*Elset, Elset=Internal-1_Internal_Selection-1_Solid_part-17_to_Solid_part-15_Master_S4
20040, 20500, 20608, 20614, 20621, 20625, 20627, 20636, 20639, 20654, 20656, 20657, 20660, 20662, 20663, 20664, 
20665
*Elset, Elset=Internal-1_Internal_Selection-1_Solid_part-17_to_Solid_part-15_Master_S3
20487, 20575, 20577, 20581, 20622, 20633, 20635, 20641, 20643, 20646, 20659, 20662, 20663
*Elset, Elset=Internal-1_Internal_Selection-1_Solid_part-17_to_Solid_part-15_Slave_S1
15609, 15610, 15754, 15755, 16067, 16068, 16246, 16247, 16253, 16254, 16457, 16458, 16492, 16493, 16494, 16495, 
16496, 16497, 16671, 16672, 16701, 16702, 16706, 16707, 16927, 16928, 16960, 16961, 17034, 17035, 17041, 17042, 
17137, 17138, 17145, 17146, 17286, 17287, 17364, 17365, 17440, 17441, 17463, 17464, 17485, 17486, 17488, 17489, 
17620, 17621, 17633, 17634, 17654, 17655, 17698, 17699, 17710, 17711, 17734, 17735, 17750, 17751, 17756, 17757, 
17790, 17791, 17815, 17816, 17846, 17847, 17861, 17862, 17871, 17872, 17891, 17892, 17900, 17901, 17956, 17957, 
17974, 17975, 17989, 17990, 17998, 17999, 18016, 18017, 18059, 18060, 18094, 18095, 18104, 18105, 18137, 18138, 
18163, 18164, 18178, 18179, 18221, 18222, 18250, 18251, 18253, 18254, 18268, 18269, 18294, 18295, 18308, 18309, 
18340, 18341, 18389, 18390, 18411, 18412, 18471, 18472, 18480, 18481, 18483, 18484, 18494, 18495, 18508, 18509, 
18515, 18516, 18538, 18539, 18568, 18569, 18572, 18573, 18577, 18578, 18592, 18593, 18604, 18605, 18623, 18624, 
18638, 18639, 18649, 18650, 18665, 18666, 18682, 18683, 18716, 18717, 18732, 18733, 18739, 18740, 18743, 18744, 
18745, 18746, 18765, 18766, 18782, 18783, 18793, 18794, 18807, 18808, 18812, 18813, 18818, 18819, 18847, 18848, 
18857, 18858, 18861, 18862, 18908, 18909, 18921, 18922, 18944, 18945, 18950, 18951, 18962, 18963, 18987, 18988, 
18997, 18998, 19008, 19009, 19010, 19011, 19012, 19013, 19020, 19021, 19022, 19023, 19040, 19041, 19097, 19098, 
19118, 19119, 19151, 19152, 19169, 19170, 19183, 19184, 19192, 19193, 19202, 19203, 19222, 19223, 19265, 19266, 
19279, 19280, 19328, 19329, 19353, 19354, 19357, 19358, 19364, 19365, 19399, 19400, 19407, 19408, 19411, 19412, 
19460, 19461, 19462, 19463, 19471, 19472, 19473, 19474, 19475, 19476, 19489, 19503, 19505, 19510, 19516, 19517, 
19518, 19537, 19547, 19556, 19557, 19558, 19563, 19566, 19569, 19575, 19577, 19578, 19590, 19591, 19594, 19599, 
19601
*Elset, Elset=Internal-1_Internal_Selection-1_Solid_part-17_to_Solid_part-15_Slave_S4
19082, 19115, 19420, 19492, 19504, 19506, 19535, 19548, 19560, 19565, 19574, 19595, 19598
*Elset, Elset=Internal-1_Internal_Selection-1_Solid_part-17_to_Solid_part-15_Slave_S3
19419, 19490, 19536, 19561, 19571, 19572, 19573, 19576, 19596, 19597
*Elset, Elset=Internal-1_Internal_Selection-1_Solid_part-17_to_Solid_part-15_Slave_S2
19491, 19493, 19494, 19495, 19496, 19497, 19507, 19534, 19538, 19539, 19540, 19541, 19544, 19545, 19549, 19553, 
19559, 19562, 19564, 19570, 19592, 19593, 19605, 19606
*Elset, Elset=Internal-1_Internal_Selection-1_Solid_part-15_to_Solid_part-14_Master_S1
14793, 14900, 15019, 15050, 15102, 15137, 15302, 15320, 15587, 15660, 15723, 15767, 15786, 16076, 16213, 16332, 
16403, 16412, 16420, 16430, 16474, 16635, 16709, 16716, 16761, 16800, 16801, 16889, 16903, 16924, 16985, 16998, 
17039, 17057, 17096, 17117, 17154, 17169, 17171, 17177, 17221, 17222, 17230, 17259, 17291, 17301, 17381, 17462, 
17491, 17512, 17517, 17524, 17572, 17605, 17624, 17656, 17681, 17745, 17778, 17803, 17820, 17858, 17883, 17895, 
17905, 17913, 17915, 17920, 17955, 17970, 18036, 18143, 18156, 18180, 18208, 18218, 18227, 18231, 18240, 18260, 
18263, 18280, 18307, 18329, 18333, 18342, 18350, 18352, 18366, 18378, 18385, 18400, 18403, 18466, 18468, 18489, 
18553, 18579, 18580, 18589, 18625, 18627, 18636, 18641, 18647, 18652, 18663, 18671, 18672, 18706, 18721, 18727, 
18730, 18741, 18791, 18802, 18809, 18829, 18839, 18845, 18856, 18883, 18891, 18903, 18904, 18905, 18916, 18924, 
18925, 18967, 18975, 18976, 18978, 18984, 18995, 19007, 19025, 19053, 19066, 19067, 19068, 19080, 19083, 19086, 
19094, 19104, 19111, 19121, 19123, 19142, 19147, 19160, 19165, 19166, 19167, 19207, 19224, 19230, 19234, 19236, 
19267, 19283, 19294, 19295, 19336, 19350, 19356, 19380, 19436, 19437, 19466, 19469, 19479, 19515, 19519, 19532, 
19533, 19535, 19546, 19552, 19579, 19597, 19598, 19600, 19607, 19611, 19613, 19614, 19616
*Elset, Elset=Internal-1_Internal_Selection-1_Solid_part-15_to_Solid_part-14_Master_S2
17973, 18556, 18892, 18914, 19037, 19058, 19071, 19090, 19126, 19128, 19159, 19187, 19188, 19259, 19262, 19314, 
19316, 19342, 19524, 19536
*Elset, Elset=Internal-1_Internal_Selection-1_Solid_part-15_to_Solid_part-14_Master_S4
18554, 18885, 18959, 19042, 19047, 19050, 19060, 19074, 19076, 19088, 19227, 19237, 19260, 19284, 19289, 19321, 
19330, 19423, 19428, 19443, 19478, 19482, 19483, 19511, 19538, 19544, 19547, 19551, 19553, 19559, 19564, 19593, 
19594
*Elset, Elset=Internal-1_Internal_Selection-1_Solid_part-15_to_Solid_part-14_Master_S3
18886, 18888, 18972, 18980, 19054, 19056, 19070, 19077, 19078, 19091, 19105, 19148, 19229, 19233, 19264, 19276, 
19300, 19303, 19307, 19310, 19324, 19349, 19374, 19381, 19417, 19429, 19444, 19452, 19487, 19488, 19509, 19527, 
19540, 19545, 19548, 19549
*Elset, Elset=Internal-1_Internal_Selection-1_Solid_part-15_to_Solid_part-14_Slave_S1
9578, 9748, 9813, 9833, 9952, 10023, 10060, 10084, 10086, 10251, 10614, 10622, 10711, 10735, 10785, 10996, 
11486, 11554, 11563, 11565, 11650, 11680, 11812, 11813, 11821, 11862, 11933, 11946, 12004, 12198, 12237, 12245, 
12308, 12342, 12353, 12427, 12485, 12501, 12577, 12584, 12645, 12659, 12676, 12754, 12755, 12767, 12771, 12930, 
12985, 13027, 13030, 13040, 13058, 13064, 13067, 13100, 13106, 13147, 13162, 13226, 13231, 13280, 13281, 13341, 
13347, 13361, 13429, 13432, 13433, 13435, 13439, 13446, 13447, 13463, 13469, 13471, 13477, 13527, 13532, 13538, 
13544, 13560, 13568, 13575, 13582, 13593, 13643, 13686, 13717, 13737, 13773, 13780, 13799, 13808, 13809, 13812, 
13817, 13874, 13926, 13947, 13954, 13968, 13993, 14007, 14009, 14016, 14023, 14029, 14037, 14048, 14049, 14073, 
14076, 14101, 14119, 14124, 14152, 14181, 14188, 14189, 14194, 14253, 14266, 14298, 14317, 14322, 14353, 14359, 
14365, 14379, 14407, 14408, 14412, 14415, 14440, 14454, 14455, 14474, 14499, 14509, 14540, 14542
*Elset, Elset=Internal-1_Internal_Selection-1_Solid_part-15_to_Solid_part-14_Slave_S3
11790, 12288, 13765, 13897, 13915, 13927, 13936, 13938, 13974, 13986, 14019, 14020, 14031, 14046, 14069, 14074, 
14154, 14157, 14161, 14162, 14200, 14203, 14213, 14252, 14257, 14285, 14329, 14381, 14382, 14385, 14401, 14438, 
14445, 14477, 14493, 14496, 14502, 14520, 14539
*Elset, Elset=Internal-1_Internal_Selection-1_Solid_part-15_to_Solid_part-14_Slave_S2
12164, 13736, 13753, 13760, 13896, 13989, 14222, 14268, 14281, 14311, 14327, 14479, 14544
*Elset, Elset=Internal-1_Internal_Selection-1_Solid_part-15_to_Solid_part-14_Slave_S4
13762, 13784, 13814, 13816, 13941, 13943, 13944, 13955, 14057, 14158, 14223, 14243, 14273, 14300, 14307, 14319, 
14367, 14431, 14442, 14450, 14480, 14495, 14515, 14519, 14522, 14546
*Elset, Elset=Internal-1_Internal_Selection-1_Solid_part-14_to_Solid_part-19_Master_S1
9628, 9649, 9757, 9779, 9884, 9920, 9928, 9934, 10028, 10074, 10142, 10150, 10158, 10221, 10289, 10363, 
10392, 10457, 10524, 10574, 10642, 10657, 10683, 10823, 10926, 10947, 10990, 11054, 11432, 11585, 11658, 11710, 
11716, 11755, 11798, 11858, 11969, 11985, 12049, 12100, 12111, 12150, 12162, 12174, 12218, 12228, 12303, 12404, 
12468, 12503, 12513, 12567, 12640, 12690, 12713, 12718, 12739, 12797, 12816, 12832, 12862, 12876, 12909, 12969, 
12971, 13010, 13023, 13066, 13077, 13178, 13196, 13253, 13367, 13386, 13421, 13476, 13558, 13589, 13597, 13601, 
13627, 13639, 13658, 13671, 13684, 13687, 13693, 13718, 13723, 13725, 13743, 13752, 13785, 13795, 13798, 13807, 
13815, 13818, 13843, 13870, 13873, 13917, 13935, 13945, 13951, 13990, 14018, 14024, 14030, 14053, 14061, 14079, 
14097, 14142, 14180, 14186, 14242, 14267, 14271, 14326, 14336, 14361, 14378, 14384, 14388, 14389, 14416, 14432, 
14458, 14492, 14498
*Elset, Elset=Internal-1_Internal_Selection-1_Solid_part-14_to_Solid_part-19_Master_S4
11072, 12163, 13754, 13761, 13764, 13811, 13881, 13918, 13937, 13939, 13946, 14021, 14195, 14204, 14221, 14246, 
14291, 14315, 14363, 14368, 14383, 14411, 14433, 14434, 14444, 14475, 14476, 14500, 14501, 14514, 14543
*Elset, Elset=Internal-1_Internal_Selection-1_Solid_part-14_to_Solid_part-19_Master_S3
12292, 12296, 13774, 13813, 13894, 13895, 13898, 13975, 14032, 14045, 14075, 14151, 14153, 14156, 14159, 14160, 
14193, 14211, 14225, 14247, 14249, 14258, 14262, 14272, 14282, 14294, 14299, 14309, 14316, 14323, 14338, 14380, 
14394, 14430, 14451, 14478, 14491, 14497, 14516, 14517, 14518, 14538, 14547
*Elset, Elset=Internal-1_Internal_Selection-1_Solid_part-14_to_Solid_part-19_Master_S2
13738, 13763, 13810, 13916, 13928, 13940, 13942, 13956, 14050, 14058, 14070, 14155, 14320, 14328, 14494
*Elset, Elset=Internal-1_Internal_Selection-1_Solid_part-14_to_Solid_part-19_Slave_S1
20982, 21031, 21049, 21074, 21075, 21101, 21115, 21144, 21148, 21162, 21167, 21168, 21169, 21171, 21175, 21178, 
21198, 21207, 21209, 21215, 21217, 21231, 21239, 21246, 21255, 21258, 21262, 21278, 21282, 21287, 21296, 21300, 
21303, 21327, 21328, 21337, 21338, 21341, 21378, 21398
*Elset, Elset=Internal-1_Internal_Selection-1_Solid_part-14_to_Solid_part-19_Slave_S3
21272, 21273, 21291, 21292, 21301, 21302, 21312, 21313, 21329, 21357, 21358, 21365, 21374, 21375, 21379, 21386, 
21387, 21391, 21393, 21400, 21403
*Elset, Elset=Internal-1_Internal_Selection-1_Solid_part-14_to_Solid_part-19_Slave_S2
21274, 21326, 21367
*Elset, Elset=Internal-1_Internal_Selection-1_Solid_part-14_to_Solid_part-19_Slave_S4
21293, 21310, 21311, 21359, 21362, 21368, 21370, 21405
**
** Surfaces ++++++++++++++++++++++++++++++++++++++++++++++++
**
*Surface, Name=Surface-1, Type=Element
Internal-1_Surface-1_S1, S1
Internal-1_Surface-1_S2, S2
Internal-1_Surface-1_S3, S3
*Surface, Name=Surface-2, Type=Element
Internal-1_Surface-2_S1, S1
Internal-1_Surface-2_S3, S3
Internal-1_Surface-2_S2, S2
Internal-1_Surface-2_S4, S4
*Surface, Name=Internal_Selection-1_Solid_part-17_to_Solid_part-15_Master, Type=Element
Internal-1_Internal_Selection-1_Solid_part-17_to_Solid_part-15_Master_S1, S1
Internal-1_Internal_Selection-1_Solid_part-17_to_Solid_part-15_Master_S2, S2
Internal-1_Internal_Selection-1_Solid_part-17_to_Solid_part-15_Master_S4, S4
Internal-1_Internal_Selection-1_Solid_part-17_to_Solid_part-15_Master_S3, S3
*Surface, Name=Internal_Selection-1_Solid_part-17_to_Solid_part-15_Slave, Type=Element
Internal-1_Internal_Selection-1_Solid_part-17_to_Solid_part-15_Slave_S1, S1
Internal-1_Internal_Selection-1_Solid_part-17_to_Solid_part-15_Slave_S4, S4
Internal-1_Internal_Selection-1_Solid_part-17_to_Solid_part-15_Slave_S3, S3
Internal-1_Internal_Selection-1_Solid_part-17_to_Solid_part-15_Slave_S2, S2
*Surface, Name=Internal_Selection-1_Solid_part-15_to_Solid_part-14_Master, Type=Element
Internal-1_Internal_Selection-1_Solid_part-15_to_Solid_part-14_Master_S1, S1
Internal-1_Internal_Selection-1_Solid_part-15_to_Solid_part-14_Master_S2, S2
Internal-1_Internal_Selection-1_Solid_part-15_to_Solid_part-14_Master_S4, S4
Internal-1_Internal_Selection-1_Solid_part-15_to_Solid_part-14_Master_S3, S3
*Surface, Name=Internal_Selection-1_Solid_part-15_to_Solid_part-14_Slave, Type=Element
Internal-1_Internal_Selection-1_Solid_part-15_to_Solid_part-14_Slave_S1, S1
Internal-1_Internal_Selection-1_Solid_part-15_to_Solid_part-14_Slave_S3, S3
Internal-1_Internal_Selection-1_Solid_part-15_to_Solid_part-14_Slave_S2, S2
Internal-1_Internal_Selection-1_Solid_part-15_to_Solid_part-14_Slave_S4, S4
*Surface, Name=Internal_Selection-1_Solid_part-14_to_Solid_part-19_Master, Type=Element
Internal-1_Internal_Selection-1_Solid_part-14_to_Solid_part-19_Master_S1, S1
Internal-1_Internal_Selection-1_Solid_part-14_to_Solid_part-19_Master_S4, S4
Internal-1_Internal_Selection-1_Solid_part-14_to_Solid_part-19_Master_S3, S3
Internal-1_Internal_Selection-1_Solid_part-14_to_Solid_part-19_Master_S2, S2
*Surface, Name=Internal_Selection-1_Solid_part-14_to_Solid_part-19_Slave, Type=Element
Internal-1_Internal_Selection-1_Solid_part-14_to_Solid_part-19_Slave_S1, S1
Internal-1_Internal_Selection-1_Solid_part-14_to_Solid_part-19_Slave_S3, S3
Internal-1_Internal_Selection-1_Solid_part-14_to_Solid_part-19_Slave_S2, S2
Internal-1_Internal_Selection-1_Solid_part-14_to_Solid_part-19_Slave_S4, S4
**
** Physical constants ++++++++++++++++++++++++++++++++++++++
**
**
** Coordinate systems ++++++++++++++++++++++++++++++++++++++
**
**
** Materials +++++++++++++++++++++++++++++++++++++++++++++++
**
*Material, Name=S355
*Density
7.8E-09
*Elastic
210000, 0.28
**
** Sections ++++++++++++++++++++++++++++++++++++++++++++++++
**
*Solid section, Elset=all, Material=S355
**
** Pre-tension sections ++++++++++++++++++++++++++++++++++++
**
*PRETENSIONSECTION, NAME=PT1, SURFACE_A=Surface-1, SURFACE_B=Surface-2
**
** Constraints +++++++++++++++++++++++++++++++++++++++++++++
**
*Tie, SLAVE=Internal_Selection-1_Solid_part-17_to_Solid_part-15_Slave, MASTER=Internal_Selection-1_Solid_part-17_to_Solid_part-15_Master, DISTANCE=0.01


*Tie, SLAVE=Internal_Selection-1_Solid_part-15_to_Solid_part-14_Slave, MASTER=Internal_Selection-1_Solid_part-15_to_Solid_part-14_Master, DISTANCE=0.01


*Tie, SLAVE=Internal_Selection-1_Solid_part-14_to_Solid_part-19_Slave, MASTER=Internal_Selection-1_Solid_part-14_to_Solid_part-19_Master, DISTANCE=0.01
**
** Surface interactions ++++++++++++++++++++++++++++++++++++
**
**
** Contact pairs +++++++++++++++++++++++++++++++++++++++++++
**
**
** Amplitudes ++++++++++++++++++++++++++++++++++++++++++++++
**
**
** Initial conditions ++++++++++++++++++++++++++++++++++++++
**
**
** Steps +++++++++++++++++++++++++++++++++++++++++++++++++++
**



*SUPPORT, SUPPORT_COLLECTOR=BC
bottom, 0.0, 0.0, 0.0, NAN, NAN, NAN

*SUPPORT, SUPPORT_COLLECTOR=BC2
top, 0.0, 0.0, 2.0, NAN, NAN, NAN

*CLOAD, LOAD_COLLECTOR=LOAD
bottom, 0.0, 0.0, 0.0, 0.0, 0.0, 0.0

*LOADCASE, TYPE=LINEARSTATIC, NAME=MERGED_FACE_PAIR_TEST
*SUPPORTS
BC
*PRETENSION, SECTION=PT1, ACTION=LOAD, CONTROL=FORCE, VALUE=10.00
*SOLVER, DEVICE=CPU, METHOD=DIRECT
*CONSTRAINTMETHOD, TYPE=LAGRANGE
*CONSTRAINTSUMMARY
*END

*LOADCASE, TYPE=LINEARSTATIC, NAME=MERGED_FACE_PAIR_TEST_2
*SUPPORTS
BC
BC2
*PRETENSION, SECTION=PT1, ACTION=LOCK
*SOLVER, DEVICE=CPU, METHOD=DIRECT
*CONSTRAINTMETHOD, TYPE=LAGRANGE
*CONSTRAINTSUMMARY
*END