*MODEL, NAME=PRETENSION_FACE_PAIR_LOADSTEPS
*NODE, NSET=NALL
1,  -1, -1, 0
2,   1, -1, 0
3,   1,  1, 0
4,  -1,  1, 0
5,  -1, -1, 1
6,   1, -1, 1
7,   1,  1, 1
8,  -1,  1, 1
9,  -1, -1, 2
10,  1, -1, 2
11,  1,  1, 2
12, -1,  1, 2
13, -1, -1, 3
14,  1, -1, 3
15,  1,  1, 3
16, -1,  1, 3
*ELEMENT, TYPE=C3D8, ELSET=SOLID
1, 1, 2, 3, 4, 5, 6, 7, 8
2, 5, 6, 7, 8, 9, 10, 11, 12
3, 9, 10, 11, 12, 13, 14, 15, 16
*SURFACE, SFSET=CUT_FACE
2, 2, 1
*PRETENSIONSECTION, NAME=PT1, SURFACE_A=CUT_FACE
*MATERIAL, NAME=STEEL
*ELASTIC, TYPE=ISOTROPIC
210000.0, 0.3
*SOLIDSECTION, ELSET=SOLID, MATERIAL=STEEL
*NSET, NAME=ENDS
1, 2, 3, 4, 13, 14, 15, 16
*NSET, NAME=MIDDLE
9, 10, 11, 12
*SUPPORT, SUPPORT_COLLECTOR=BC
ENDS, 0.0, 0.0, 0.0, NAN, NAN, NAN
*CLOAD, LOAD_COLLECTOR=EXTERNAL
MIDDLE, 0.0, 0.0, -1.0, 0.0, 0.0, 0.0
*LOADCASE, TYPE=LINEARSTATIC, NAME=FORCE_PRETENSION
*SUPPORTS
BC
*PRETENSION, SECTION=PT1, ACTION=LOAD, CONTROL=FORCE, VALUE=1000.0
*SOLVER, DEVICE=CPU, METHOD=DIRECT
*CONSTRAINTMETHOD, TYPE=NULLSPACE
*CONSTRAINTSUMMARY
*END
*LOADCASE, TYPE=LINEARSTATIC, NAME=LOCK_SOLVED_GAP
*SUPPORTS
BC
*PRETENSION, SECTION=PT1, ACTION=LOCK
*SOLVER, DEVICE=CPU, METHOD=DIRECT
*CONSTRAINTMETHOD, TYPE=NULLSPACE
*CONSTRAINTSUMMARY
*END
*LOADCASE, TYPE=LINEARSTATIC, NAME=LOCK_WITH_EXTERNAL_LOAD
*SUPPORTS
BC
*PRETENSION, SECTION=PT1, ACTION=LOCK
*LOADS
EXTERNAL
*SOLVER, DEVICE=CPU, METHOD=DIRECT
*CONSTRAINTMETHOD, TYPE=NULLSPACE
*CONSTRAINTSUMMARY
*END
