**
** Heading +++++++++++++++++++++++++++++++++++++++++++++++++
**
*Heading
Hash: BZZZyUaH, Date: 08/14/2026, Unit system: MM_TON_S_C
**
** Nodes +++++++++++++++++++++++++++++++++++++++++++++++++++
**
*Node
1, 1.50000000E+001, 0.00000000E+000, 8.00000000E+001
2, -1.50000000E+001, -1.83697020E-015, 8.00000000E+001
3, -1.50000000E+001, -1.83697020E-015, 0.00000000E+000
4, 1.50000000E+001, 0.00000000E+000, 0.00000000E+000
5, -1.29903811E+001, -7.50000000E+000, 8.00000000E+001
6, -7.50000000E+000, -1.29903811E+001, 8.00000000E+001
7, 5.05353409E-014, -1.50000000E+001, 8.00000000E+001
8, 7.50000000E+000, -1.29903811E+001, 8.00000000E+001
9, 1.29903811E+001, -7.50000000E+000, 8.00000000E+001
10, 1.29903811E+001, 7.50000000E+000, 8.00000000E+001
11, 7.50000000E+000, 1.29903811E+001, 8.00000000E+001
12, 7.57979291E-015, 1.50000000E+001, 8.00000000E+001
13, -7.50000000E+000, 1.29903811E+001, 8.00000000E+001
14, -1.29903811E+001, 7.50000000E+000, 8.00000000E+001
15, 1.29903811E+001, 7.50000000E+000, 0.00000000E+000
16, 7.50000000E+000, 1.29903811E+001, 0.00000000E+000
17, 7.57979291E-015, 1.50000000E+001, 0.00000000E+000
18, -7.50000000E+000, 1.29903811E+001, 0.00000000E+000
19, -1.29903811E+001, 7.50000000E+000, 0.00000000E+000
20, -1.29903811E+001, -7.50000000E+000, 0.00000000E+000
** ... 22 like lines cut
**
** Elements ++++++++++++++++++++++++++++++++++++++++++++++++
**
*Element, Type=C3D8, Elset=Solid_part-1
1, 1, 9, 28, 27, 4, 24, 37, 36
2, 8, 26, 28, 9, 23, 35, 37, 24
3, 25, 27, 28, 26, 34, 36, 37, 35
4, 2, 14, 31, 30, 3, 19, 40, 39
5, 13, 29, 31, 14, 18, 38, 40, 19
6, 25, 30, 31, 29, 34, 39, 40, 38
7, 6, 5, 32, 7, 21, 20, 41, 22
8, 2, 30, 32, 5, 3, 39, 41, 20
9, 25, 26, 32, 30, 34, 35, 41, 39
10, 8, 7, 32, 26, 23, 22, 41, 35
11, 25, 29, 33, 27, 34, 38, 42, 36
12, 13, 12, 33, 29, 18, 17, 42, 38
13, 11, 10, 33, 12, 16, 15, 42, 17
14, 1, 27, 33, 10, 4, 36, 42, 15
**
** Node sets +++++++++++++++++++++++++++++++++++++++++++++++
**
*Nset, Nset=bottom
1, 2, 5, 6, 7, 8, 9, 10, 11, 12, 13, 14, 25, 26, 27, 28, 
29, 30, 31, 32, 33
*Nset, Nset=top
3, 4, 15, 16, 17, 18, 19, 20, 21, 22, 23, 24, 34, 35, 36, 37, 
38, 39, 40, 41, 42
*Nset, Nset=Internal-1_Surface1
1, 2, 3, 4, 10, 11, 12, 13, 14, 15, 16, 17, 18, 19
**
** Element sets ++++++++++++++++++++++++++++++++++++++++++++
**
*Elset, Elset=Element_Set-1
1, 2, 3, 4, 5, 6, 7, 8, 9, 10, 11, 12, 13, 14
*Elset, Elset=Internal-1_Surface1_S3
4, 12, 13
*Elset, Elset=Internal-1_Surface1_S6
5, 13, 14
**
** Surfaces ++++++++++++++++++++++++++++++++++++++++++++++++
**
*Surface, Name=Surface1, Type=Element
Internal-1_Surface1_S3, S3
Internal-1_Surface1_S6, S6
**
** Physical constants ++++++++++++++++++++++++++++++++++++++
**
**
** Coordinate systems ++++++++++++++++++++++++++++++++++++++
**
**
** Materials +++++++++++++++++++++++++++++++++++++++++++++++
**
*Material, Name=S355
*Density
7.8E-09
*Elastic
210000, 0.28
**
** Sections ++++++++++++++++++++++++++++++++++++++++++++++++
**
*Solid section, Elset=Element_Set-1, Material=S355
**
** Pre-tension sections ++++++++++++++++++++++++++++++++++++
**
**
** Constraints +++++++++++++++++++++++++++++++++++++++++++++
**
**
** Surface interactions ++++++++++++++++++++++++++++++++++++
**
**
** Contact pairs +++++++++++++++++++++++++++++++++++++++++++
**
**
** Amplitudes ++++++++++++++++++++++++++++++++++++++++++++++
**
**
** Initial conditions ++++++++++++++++++++++++++++++++++++++
**
**
** Steps +++++++++++++++++++++++++++++++++++++++++++++++++++
**
*SUPPORT, SUPPORT_COLLECTOR=BC
top, 0.0, 0.0, 0.0, NAN, NAN, NAN
bottom, 0.0, 0.0, 0.0, NAN, NAN, NAN

*PRETENSIONSECTION, NAME=PT1, SURFACE=SURFACE1, POSITION=MIDDLE
0.0, 0.0, 1.0
*PRETENSION, SECTION=PT1, ACTION=LOAD, CONTROL=DISPLACEMENT, VALUE=1.0

*LOADCASE, TYPE=LINEARSTATIC, NAME=PRETENSION_TEST
*SUPPORTS
BC
*SOLVER, DEVICE=CPU, METHOD=DIRECT
*CONSTRAINTMETHOD, TYPE=LAGRANGE
*CONSTRAINTSUMMARY
*END
