**
** Heading +++++++++++++++++++++++++++++++++++++++++++++++++
**
*Heading
Hash: BZZZyUaH, Date: 08/14/2026, Unit system: MM_TON_S_C
**
** Nodes +++++++++++++++++++++++++++++++++++++++++++++++++++
**
*Node
1, 1.50000000E+001, 0.00000000E+000, 8.00000000E+001
2, -1.50000000E+001, -1.83697020E-015, 8.00000000E+001
3, -1.50000000E+001, -1.83697020E-015, 0.00000000E+000
4, 1.50000000E+001, 0.00000000E+000, 0.00000000E+000
5, -1.29903811E+001, -7.50000000E+000, 8.00000000E+001
6, -7.50000000E+000, -1.29903811E+001, 8.00000000E+001
7, 5.05353409E-014, -1.50000000E+001, 8.00000000E+001
8, 7.50000000E+000, -1.29903811E+001, 8.00000000E+001
9, 1.29903811E+001, -7.50000000E+000, 8.00000000E+001
10, 1.29903811E+001, 7.50000000E+000, 8.00000000E+001
11, 7.50000000E+000, 1.29903811E+001, 8.00000000E+001
12, 7.57979291E-015, 1.50000000E+001, 8.00000000E+001
13, -7.50000000E+000, 1.29903811E+001, 8.00000000E+001
14, -1.29903811E+001, 7.50000000E+000, 8.00000000E+001
15, -1.50000000E+001, -1.83697020E-015, 7.11111111E+001
16, -1.50000000E+001, -1.83697020E-015, 6.22222222E+001
17, -1.50000000E+001, -1.83697020E-015, 5.33333333E+001
18, -1.50000000E+001, -1.83697020E-015, 4.44444444E+001
19, -1.50000000E+001, -1.83697020E-015, 3.55555556E+001
20, -1.50000000E+001, -1.83697020E-015, 2.66666667E+001
** ... 190 like lines cut
**
** Elements ++++++++++++++++++++++++++++++++++++++++++++++++
**
*Element, Type=C3D8, Elset=Solid_part-1
1, 1, 9, 44, 43, 23, 122, 163, 155
2, 23, 122, 163, 155, 24, 123, 164, 156
3, 24, 123, 164, 156, 25, 124, 165, 157
4, 25, 124, 165, 157, 26, 125, 166, 158
5, 26, 125, 166, 158, 27, 126, 167, 159
6, 27, 126, 167, 159, 28, 127, 168, 160
7, 28, 127, 168, 160, 29, 128, 169, 161
8, 29, 128, 169, 161, 30, 129, 170, 162
9, 30, 129, 170, 162, 4, 40, 133, 132
10, 8, 42, 44, 9, 114, 147, 163, 122
11, 114, 147, 163, 122, 115, 148, 164, 123
12, 115, 148, 164, 123, 116, 149, 165, 124
13, 116, 149, 165, 124, 117, 150, 166, 125
14, 117, 150, 166, 125, 118, 151, 167, 126
15, 118, 151, 167, 126, 119, 152, 168, 127
16, 119, 152, 168, 127, 120, 153, 169, 128
17, 120, 153, 169, 128, 121, 154, 170, 129
18, 121, 154, 170, 129, 39, 131, 133, 40
19, 41, 43, 44, 42, 139, 155, 163, 147
20, 139, 155, 163, 147, 140, 156, 164, 148
** ... 106 like lines cut
**
** Node sets +++++++++++++++++++++++++++++++++++++++++++++++
**
*Nset, Nset=bottom
1, 2, 5, 6, 7, 8, 9, 10, 11, 12, 13, 14, 41, 42, 43, 44, 
45, 46, 47, 48, 49
*Nset, Nset=top
3, 4, 31, 32, 33, 34, 35, 36, 37, 38, 39, 40, 130, 131, 132, 133, 
134, 135, 136, 137, 138
*Nset, Nset=Internal-1_Surface1
1, 2, 3, 4, 10, 11, 12, 13, 14, 15, 16, 17, 18, 19, 20, 21, 
22, 23, 24, 25, 26, 27, 28, 29, 30, 31, 32, 33, 34, 35, 50, 51, 
52, 53, 54, 55, 56, 57, 58, 59, 60, 61, 62, 63, 64, 65, 66, 67, 
68, 69, 70, 71, 72, 73, 74, 75, 76, 77, 78, 79, 80, 81, 82, 83, 
84, 85, 86, 87, 88, 89
**
** Element sets ++++++++++++++++++++++++++++++++++++++++++++
**
*Elset, Elset=Element_Set-1
1, 2, 3, 4, 5, 6, 7, 8, 9, 10, 11, 12, 13, 14, 15, 16, 
17, 18, 19, 20, 21, 22, 23, 24, 25, 26, 27, 28, 29, 30, 31, 32, 
33, 34, 35, 36, 37, 38, 39, 40, 41, 42, 43, 44, 45, 46, 47, 48, 
49, 50, 51, 52, 53, 54, 55, 56, 57, 58, 59, 60, 61, 62, 63, 64, 
65, 66, 67, 68, 69, 70, 71, 72, 73, 74, 75, 76, 77, 78, 79, 80, 
81, 82, 83, 84, 85, 86, 87, 88, 89, 90, 91, 92, 93, 94, 95, 96, 
97, 98, 99, 100, 101, 102, 103, 104, 105, 106, 107, 108, 109, 110, 111, 112, 
113, 114, 115, 116, 117, 118, 119, 120, 121, 122, 123, 124, 125, 126
*Elset, Elset=Internal-1_Surface1_S3
28, 29, 30, 31, 32, 33, 34, 35, 36, 100, 101, 102, 103, 104, 105, 106, 
107, 108, 109, 110, 111, 112, 113, 114, 115, 116, 117
*Elset, Elset=Internal-1_Surface1_S6
37, 38, 39, 40, 41, 42, 43, 44, 45, 109, 110, 111, 112, 113, 114, 115, 
116, 117, 118, 119, 120, 121, 122, 123, 124, 125, 126
**
** Surfaces ++++++++++++++++++++++++++++++++++++++++++++++++
**
*Surface, Name=Surface1, Type=Element
Internal-1_Surface1_S3, S3
Internal-1_Surface1_S6, S6
**
** Physical constants ++++++++++++++++++++++++++++++++++++++
**
**
** Coordinate systems ++++++++++++++++++++++++++++++++++++++
**
**
** Materials +++++++++++++++++++++++++++++++++++++++++++++++
**
*Material, Name=S355
*Density
7.8E-09
*Elastic
210000, 0.28
**
** Sections ++++++++++++++++++++++++++++++++++++++++++++++++
**
*Solid section, Elset=Element_Set-1, Material=S355
**
** Pre-tension sections ++++++++++++++++++++++++++++++++++++
**
**
** Constraints +++++++++++++++++++++++++++++++++++++++++++++
**
**
** Surface interactions ++++++++++++++++++++++++++++++++++++
**
**
** Contact pairs +++++++++++++++++++++++++++++++++++++++++++
**
**
** Amplitudes ++++++++++++++++++++++++++++++++++++++++++++++
**
**
** Initial conditions ++++++++++++++++++++++++++++++++++++++
**
**
** Steps +++++++++++++++++++++++++++++++++++++++++++++++++++
**
*SUPPORT, SUPPORT_COLLECTOR=BC
top, 0.0, 0.0, 0.0
bottom, 0.0, 0.0, 0.0

*PRETENSIONSECTION, NAME=PT1, SURFACE=SURFACE1, POSITION=MIDDLE
0.0, 0.0, 1.0
*PRETENSION, SECTION=PT1, ACTION=LOAD, CONTROL=DISPLACEMENT, VALUE=1.0

*LOADCASE, TYPE=LINEARSTATIC, NAME=PRETENSION_TEST
*SUPPORTS
BC
*SOLVER, DEVICE=CPU, METHOD=DIRECT
*CONSTRAINTMETHOD, TYPE=LAGRANGE
*CONSTRAINTSUMMARY
*END